
---------- Begin Simulation Statistics ----------
final_tick                                      20313                       # Number of ticks from beginning of simulation (restored from checkpoints and never reset)
host_mem_usage                                 845996                       # Number of bytes of host memory used
host_seconds                                     1.11                       # Real time elapsed on the host
host_tick_rate                                  18257                       # Simulator tick rate (ticks/s)
sim_freq                                 1000000000000                       # Frequency of simulated ticks
sim_seconds                                  0.000000                       # Number of seconds simulated
sim_ticks                                       20313                       # Number of ticks simulated
system.ruby.Directory_Controller.I.Receive_Forward |          15      8.77%      8.77% |          15      8.77%     17.54% |          15      8.77%     26.32% |          11      6.43%     32.75% |          15      8.77%     41.52% |          17      9.94%     51.46% |          13      7.60%     59.06% |           6      3.51%     62.57% |           7      4.09%     66.67% |          10      5.85%     72.51% |           8      4.68%     77.19% |           7      4.09%     81.29% |           8      4.68%     85.96% |           8      4.68%     90.64% |           6      3.51%     94.15% |          10      5.85%    100.00%
system.ruby.Directory_Controller.I.Receive_Forward::total          171                      
system.ruby.Directory_Controller.I.Receive_Request |           7      4.29%      4.29% |          12      7.36%     11.66% |          11      6.75%     18.40% |          12      7.36%     25.77% |          11      6.75%     32.52% |          15      9.20%     41.72% |          14      8.59%     50.31% |          13      7.98%     58.28% |          12      7.36%     65.64% |           9      5.52%     71.17% |          15      9.20%     80.37% |           8      4.91%     85.28% |           8      4.91%     90.18% |           6      3.68%     93.87% |           7      4.29%     98.16% |           3      1.84%    100.00%
system.ruby.Directory_Controller.I.Receive_Request::total          163                      
system.ruby.Directory_Controller.I.Receive_Response |           0      0.00%      0.00% |           3     30.00%     30.00% |           1     10.00%     40.00% |           0      0.00%     40.00% |           2     20.00%     60.00% |           0      0.00%     60.00% |           2     20.00%     80.00% |           1     10.00%     90.00% |           0      0.00%     90.00% |           0      0.00%     90.00% |           0      0.00%     90.00% |           1     10.00%    100.00% |           0      0.00%    100.00% |           0      0.00%    100.00% |           0      0.00%    100.00% |           0      0.00%    100.00%
system.ruby.Directory_Controller.I.Receive_Response::total           10                      
system.ruby.Directory_Controller.Receive_Forward |          15      8.77%      8.77% |          15      8.77%     17.54% |          15      8.77%     26.32% |          11      6.43%     32.75% |          15      8.77%     41.52% |          17      9.94%     51.46% |          13      7.60%     59.06% |           6      3.51%     62.57% |           7      4.09%     66.67% |          10      5.85%     72.51% |           8      4.68%     77.19% |           7      4.09%     81.29% |           8      4.68%     85.96% |           8      4.68%     90.64% |           6      3.51%     94.15% |          10      5.85%    100.00%
system.ruby.Directory_Controller.Receive_Forward::total          171                      
system.ruby.Directory_Controller.Receive_Request |           7      4.29%      4.29% |          12      7.36%     11.66% |          11      6.75%     18.40% |          12      7.36%     25.77% |          11      6.75%     32.52% |          15      9.20%     41.72% |          14      8.59%     50.31% |          13      7.98%     58.28% |          12      7.36%     65.64% |           9      5.52%     71.17% |          15      9.20%     80.37% |           8      4.91%     85.28% |           8      4.91%     90.18% |           6      3.68%     93.87% |           7      4.29%     98.16% |           3      1.84%    100.00%
system.ruby.Directory_Controller.Receive_Request::total          163                      
system.ruby.Directory_Controller.Receive_Response |           0      0.00%      0.00% |           3     30.00%     30.00% |           1     10.00%     40.00% |           0      0.00%     40.00% |           2     20.00%     60.00% |           0      0.00%     60.00% |           2     20.00%     80.00% |           1     10.00%     90.00% |           0      0.00%     90.00% |           0      0.00%     90.00% |           0      0.00%     90.00% |           1     10.00%    100.00% |           0      0.00%    100.00% |           0      0.00%    100.00% |           0      0.00%    100.00% |           0      0.00%    100.00%
system.ruby.Directory_Controller.Receive_Response::total           10                      
system.ruby.IFETCH.hit_latency_hist_seqr::bucket_size            1                      
system.ruby.IFETCH.hit_latency_hist_seqr::max_bucket            9                      
system.ruby.IFETCH.hit_latency_hist_seqr::samples          621                      
system.ruby.IFETCH.hit_latency_hist_seqr::mean     0.014493                      
system.ruby.IFETCH.hit_latency_hist_seqr::stdev     0.119607                      
system.ruby.IFETCH.hit_latency_hist_seqr |         612     98.55%     98.55% |           9      1.45%    100.00% |           0      0.00%    100.00% |           0      0.00%    100.00% |           0      0.00%    100.00% |           0      0.00%    100.00% |           0      0.00%    100.00% |           0      0.00%    100.00% |           0      0.00%    100.00% |           0      0.00%    100.00%
system.ruby.IFETCH.hit_latency_hist_seqr::total          621                      
system.ruby.IFETCH.latency_hist_seqr::bucket_size            1                      
system.ruby.IFETCH.latency_hist_seqr::max_bucket            9                      
system.ruby.IFETCH.latency_hist_seqr::samples          621                      
system.ruby.IFETCH.latency_hist_seqr::mean     0.014493                      
system.ruby.IFETCH.latency_hist_seqr::stdev     0.119607                      
system.ruby.IFETCH.latency_hist_seqr     |         612     98.55%     98.55% |           9      1.45%    100.00% |           0      0.00%    100.00% |           0      0.00%    100.00% |           0      0.00%    100.00% |           0      0.00%    100.00% |           0      0.00%    100.00% |           0      0.00%    100.00% |           0      0.00%    100.00% |           0      0.00%    100.00%
system.ruby.IFETCH.latency_hist_seqr::total          621                      
system.ruby.L1Cache_Controller.Forward   |           6      0.97%      0.97% |          13      2.09%      3.06% |           7      1.13%      4.19% |          10      1.61%      5.80% |           9      1.45%      7.25% |           9      1.45%      8.70% |           9      1.45%     10.14% |           7      1.13%     11.27% |          10      1.61%     12.88% |           9      1.45%     14.33% |          17      2.74%     17.07% |           9      1.45%     18.52% |           5      0.81%     19.32% |          12      1.93%     21.26% |           9      1.45%     22.71% |           9      1.45%     24.15% |           8      1.29%     25.44% |           7      1.13%     26.57% |           8      1.29%     27.86% |           9      1.45%     29.31% |          10      1.61%     30.92% |          10      1.61%     32.53% |          11      1.77%     34.30% |          13      2.09%     36.39% |           7      1.13%     37.52% |          12      1.93%     39.45% |           9      1.45%     40.90% |           7      1.13%     42.03% |           9      1.45%     43.48% |          17      2.74%     46.22% |          13      2.09%     48.31% |          12      1.93%     50.24% |           7      1.13%     51.37% |          10      1.61%     52.98% |          12      1.93%     54.91% |          12      1.93%     56.84% |           6      0.97%     57.81% |           8      1.29%     59.10% |           9      1.45%     60.55% |          13      2.09%     62.64% |          10      1.61%     64.25% |          10      1.61%     65.86% |          11      1.77%     67.63% |          10      1.61%     69.24% |          10      1.61%     70.85% |           9      1.45%     72.30% |           8      1.29%     73.59% |          12      1.93%     75.52% |           8      1.29%     76.81% |          11      1.77%     78.58% |           8      1.29%     79.87% |           8      1.29%     81.16% |           8      1.29%     82.45% |          10      1.61%     84.06% |           8      1.29%     85.35% |           8      1.29%     86.63% |          10      1.61%     88.24% |          11      1.77%     90.02% |           8      1.29%     91.30% |           9      1.45%     92.75% |          11      1.77%     94.52% |           8      1.29%     95.81% |          11      1.77%     97.58% |          15      2.42%    100.00%
system.ruby.L1Cache_Controller.Forward::total          621                      
system.ruby.L1Cache_Controller.I.Forward |           6      0.97%      0.97% |          13      2.09%      3.06% |           7      1.13%      4.19% |          10      1.61%      5.80% |           9      1.45%      7.25% |           9      1.45%      8.70% |           9      1.45%     10.14% |           7      1.13%     11.27% |          10      1.61%     12.88% |           9      1.45%     14.33% |          17      2.74%     17.07% |           9      1.45%     18.52% |           5      0.81%     19.32% |          12      1.93%     21.26% |           9      1.45%     22.71% |           9      1.45%     24.15% |           8      1.29%     25.44% |           7      1.13%     26.57% |           8      1.29%     27.86% |           9      1.45%     29.31% |          10      1.61%     30.92% |          10      1.61%     32.53% |          11      1.77%     34.30% |          13      2.09%     36.39% |           7      1.13%     37.52% |          12      1.93%     39.45% |           9      1.45%     40.90% |           7      1.13%     42.03% |           9      1.45%     43.48% |          17      2.74%     46.22% |          13      2.09%     48.31% |          12      1.93%     50.24% |           7      1.13%     51.37% |          10      1.61%     52.98% |          12      1.93%     54.91% |          12      1.93%     56.84% |           6      0.97%     57.81% |           8      1.29%     59.10% |           9      1.45%     60.55% |          13      2.09%     62.64% |          10      1.61%     64.25% |          10      1.61%     65.86% |          11      1.77%     67.63% |          10      1.61%     69.24% |          10      1.61%     70.85% |           9      1.45%     72.30% |           8      1.29%     73.59% |          12      1.93%     75.52% |           8      1.29%     76.81% |          11      1.77%     78.58% |           8      1.29%     79.87% |           8      1.29%     81.16% |           8      1.29%     82.45% |          10      1.61%     84.06% |           8      1.29%     85.35% |           8      1.29%     86.63% |          10      1.61%     88.24% |          11      1.77%     90.02% |           8      1.29%     91.30% |           9      1.45%     92.75% |          11      1.77%     94.52% |           8      1.29%     95.81% |          11      1.77%     97.58% |          15      2.42%    100.00%
system.ruby.L1Cache_Controller.I.Forward::total          621                      
system.ruby.L1Cache_Controller.I.Request |           7      1.06%      1.06% |           8      1.21%      2.27% |          10      1.52%      3.79% |          10      1.52%      5.30% |          10      1.52%      6.82% |          11      1.67%      8.48% |           8      1.21%      9.70% |           8      1.21%     10.91% |          11      1.67%     12.58% |          11      1.67%     14.24% |           8      1.21%     15.45% |          10      1.52%     16.97% |           8      1.21%     18.18% |          12      1.82%     20.00% |          12      1.82%     21.82% |          12      1.82%     23.64% |          13      1.97%     25.61% |          12      1.82%     27.42% |          11      1.67%     29.09% |           9      1.36%     30.45% |          12      1.82%     32.27% |           8      1.21%     33.48% |          11      1.67%     35.15% |           8      1.21%     36.36% |           7      1.06%     37.42% |          11      1.67%     39.09% |           9      1.36%     40.45% |          10      1.52%     41.97% |          10      1.52%     43.48% |           8      1.21%     44.70% |           9      1.36%     46.06% |          11      1.67%     47.73% |          11      1.67%     49.39% |          12      1.82%     51.21% |          14      2.12%     53.33% |           9      1.36%     54.70% |          10      1.52%     56.21% |           7      1.06%     57.27% |          11      1.67%     58.94% |          10      1.52%     60.45% |          13      1.97%     62.42% |          12      1.82%     64.24% |           5      0.76%     65.00% |          11      1.67%     66.67% |           8      1.21%     67.88% |          11      1.67%     69.55% |          11      1.67%     71.21% |          10      1.52%     72.73% |          13      1.97%     74.70% |          11      1.67%     76.36% |          13      1.97%     78.33% |          12      1.82%     80.15% |          11      1.67%     81.82% |          12      1.82%     83.64% |          13      1.97%     85.61% |          14      2.12%     87.73% |          10      1.52%     89.24% |          11      1.67%     90.91% |           9      1.36%     92.27% |          12      1.82%     94.09% |           7      1.06%     95.15% |          14      2.12%     97.27% |           9      1.36%     98.64% |           9      1.36%    100.00%
system.ruby.L1Cache_Controller.I.Request::total          660                      
system.ruby.L1Cache_Controller.I.Response |          14      2.13%      2.13% |           7      1.07%      3.20% |          12      1.83%      5.02% |           3      0.46%      5.48% |           7      1.07%      6.54% |           8      1.22%      7.76% |          13      1.98%      9.74% |          10      1.52%     11.26% |           8      1.22%     12.48% |          10      1.52%     14.00% |           6      0.91%     14.92% |          11      1.67%     16.59% |          13      1.98%     18.57% |          11      1.67%     20.24% |          11      1.67%     21.92% |           9      1.37%     23.29% |          10      1.52%     24.81% |           9      1.37%     26.18% |          11      1.67%     27.85% |           7      1.07%     28.92% |          16      2.44%     31.35% |          17      2.59%     33.94% |          13      1.98%     35.92% |          11      1.67%     37.60% |          14      2.13%     39.73% |           7      1.07%     40.79% |          14      2.13%     42.92% |          13      1.98%     44.90% |           6      0.91%     45.81% |          10      1.52%     47.34% |           5      0.76%     48.10% |           6      0.91%     49.01% |          13      1.98%     50.99% |           8      1.22%     52.21% |          10      1.52%     53.73% |          12      1.83%     55.56% |          10      1.52%     57.08% |          16      2.44%     59.51% |          12      1.83%     61.34% |          12      1.83%     63.17% |           9      1.37%     64.54% |          11      1.67%     66.21% |          12      1.83%     68.04% |           5      0.76%     68.80% |          10      1.52%     70.32% |          11      1.67%     71.99% |           9      1.37%     73.36% |           7      1.07%     74.43% |          11      1.67%     76.10% |          13      1.98%     78.08% |          10      1.52%     79.60% |          11      1.67%     81.28% |          11      1.67%     82.95% |           9      1.37%     84.32% |           8      1.22%     85.54% |          10      1.52%     87.06% |          13      1.98%     89.04% |           9      1.37%     90.41% |          17      2.59%     93.00% |          12      1.83%     94.82% |           6      0.91%     95.74% |          11      1.67%     97.41% |          10      1.52%     98.93% |           7      1.07%    100.00%
system.ruby.L1Cache_Controller.I.Response::total          657                      
system.ruby.L1Cache_Controller.Request   |           7      1.06%      1.06% |           8      1.21%      2.27% |          10      1.52%      3.79% |          10      1.52%      5.30% |          10      1.52%      6.82% |          11      1.67%      8.48% |           8      1.21%      9.70% |           8      1.21%     10.91% |          11      1.67%     12.58% |          11      1.67%     14.24% |           8      1.21%     15.45% |          10      1.52%     16.97% |           8      1.21%     18.18% |          12      1.82%     20.00% |          12      1.82%     21.82% |          12      1.82%     23.64% |          13      1.97%     25.61% |          12      1.82%     27.42% |          11      1.67%     29.09% |           9      1.36%     30.45% |          12      1.82%     32.27% |           8      1.21%     33.48% |          11      1.67%     35.15% |           8      1.21%     36.36% |           7      1.06%     37.42% |          11      1.67%     39.09% |           9      1.36%     40.45% |          10      1.52%     41.97% |          10      1.52%     43.48% |           8      1.21%     44.70% |           9      1.36%     46.06% |          11      1.67%     47.73% |          11      1.67%     49.39% |          12      1.82%     51.21% |          14      2.12%     53.33% |           9      1.36%     54.70% |          10      1.52%     56.21% |           7      1.06%     57.27% |          11      1.67%     58.94% |          10      1.52%     60.45% |          13      1.97%     62.42% |          12      1.82%     64.24% |           5      0.76%     65.00% |          11      1.67%     66.67% |           8      1.21%     67.88% |          11      1.67%     69.55% |          11      1.67%     71.21% |          10      1.52%     72.73% |          13      1.97%     74.70% |          11      1.67%     76.36% |          13      1.97%     78.33% |          12      1.82%     80.15% |          11      1.67%     81.82% |          12      1.82%     83.64% |          13      1.97%     85.61% |          14      2.12%     87.73% |          10      1.52%     89.24% |          11      1.67%     90.91% |           9      1.36%     92.27% |          12      1.82%     94.09% |           7      1.06%     95.15% |          14      2.12%     97.27% |           9      1.36%     98.64% |           9      1.36%    100.00%
system.ruby.L1Cache_Controller.Request::total          660                      
system.ruby.L1Cache_Controller.Response  |          14      2.13%      2.13% |           7      1.07%      3.20% |          12      1.83%      5.02% |           3      0.46%      5.48% |           7      1.07%      6.54% |           8      1.22%      7.76% |          13      1.98%      9.74% |          10      1.52%     11.26% |           8      1.22%     12.48% |          10      1.52%     14.00% |           6      0.91%     14.92% |          11      1.67%     16.59% |          13      1.98%     18.57% |          11      1.67%     20.24% |          11      1.67%     21.92% |           9      1.37%     23.29% |          10      1.52%     24.81% |           9      1.37%     26.18% |          11      1.67%     27.85% |           7      1.07%     28.92% |          16      2.44%     31.35% |          17      2.59%     33.94% |          13      1.98%     35.92% |          11      1.67%     37.60% |          14      2.13%     39.73% |           7      1.07%     40.79% |          14      2.13%     42.92% |          13      1.98%     44.90% |           6      0.91%     45.81% |          10      1.52%     47.34% |           5      0.76%     48.10% |           6      0.91%     49.01% |          13      1.98%     50.99% |           8      1.22%     52.21% |          10      1.52%     53.73% |          12      1.83%     55.56% |          10      1.52%     57.08% |          16      2.44%     59.51% |          12      1.83%     61.34% |          12      1.83%     63.17% |           9      1.37%     64.54% |          11      1.67%     66.21% |          12      1.83%     68.04% |           5      0.76%     68.80% |          10      1.52%     70.32% |          11      1.67%     71.99% |           9      1.37%     73.36% |           7      1.07%     74.43% |          11      1.67%     76.10% |          13      1.98%     78.08% |          10      1.52%     79.60% |          11      1.67%     81.28% |          11      1.67%     82.95% |           9      1.37%     84.32% |           8      1.22%     85.54% |          10      1.52%     87.06% |          13      1.98%     89.04% |           9      1.37%     90.41% |          17      2.59%     93.00% |          12      1.83%     94.82% |           6      0.91%     95.74% |          11      1.67%     97.41% |          10      1.52%     98.93% |           7      1.07%    100.00%
system.ruby.L1Cache_Controller.Response::total          657                      
system.ruby.LD.hit_latency_hist_seqr::bucket_size            1                      
system.ruby.LD.hit_latency_hist_seqr::max_bucket            9                      
system.ruby.LD.hit_latency_hist_seqr::samples          660                      
system.ruby.LD.hit_latency_hist_seqr::mean     0.015152                      
system.ruby.LD.hit_latency_hist_seqr::stdev     0.122248                      
system.ruby.LD.hit_latency_hist_seqr     |         650     98.48%     98.48% |          10      1.52%    100.00% |           0      0.00%    100.00% |           0      0.00%    100.00% |           0      0.00%    100.00% |           0      0.00%    100.00% |           0      0.00%    100.00% |           0      0.00%    100.00% |           0      0.00%    100.00% |           0      0.00%    100.00%
system.ruby.LD.hit_latency_hist_seqr::total          660                      
system.ruby.LD.latency_hist_seqr::bucket_size            1                      
system.ruby.LD.latency_hist_seqr::max_bucket            9                      
system.ruby.LD.latency_hist_seqr::samples          660                      
system.ruby.LD.latency_hist_seqr::mean       0.015152                      
system.ruby.LD.latency_hist_seqr::stdev      0.122248                      
system.ruby.LD.latency_hist_seqr         |         650     98.48%     98.48% |          10      1.52%    100.00% |           0      0.00%    100.00% |           0      0.00%    100.00% |           0      0.00%    100.00% |           0      0.00%    100.00% |           0      0.00%    100.00% |           0      0.00%    100.00% |           0      0.00%    100.00% |           0      0.00%    100.00%
system.ruby.LD.latency_hist_seqr::total           660                      
system.ruby.ST.hit_latency_hist_seqr::bucket_size            1                      
system.ruby.ST.hit_latency_hist_seqr::max_bucket            9                      
system.ruby.ST.hit_latency_hist_seqr::samples          657                      
system.ruby.ST.hit_latency_hist_seqr::mean     0.018265                      
system.ruby.ST.hit_latency_hist_seqr::stdev     0.134010                      
system.ruby.ST.hit_latency_hist_seqr     |         645     98.17%     98.17% |          12      1.83%    100.00% |           0      0.00%    100.00% |           0      0.00%    100.00% |           0      0.00%    100.00% |           0      0.00%    100.00% |           0      0.00%    100.00% |           0      0.00%    100.00% |           0      0.00%    100.00% |           0      0.00%    100.00%
system.ruby.ST.hit_latency_hist_seqr::total          657                      
system.ruby.ST.latency_hist_seqr::bucket_size            1                      
system.ruby.ST.latency_hist_seqr::max_bucket            9                      
system.ruby.ST.latency_hist_seqr::samples          657                      
system.ruby.ST.latency_hist_seqr::mean       0.018265                      
system.ruby.ST.latency_hist_seqr::stdev      0.134010                      
system.ruby.ST.latency_hist_seqr         |         645     98.17%     98.17% |          12      1.83%    100.00% |           0      0.00%    100.00% |           0      0.00%    100.00% |           0      0.00%    100.00% |           0      0.00%    100.00% |           0      0.00%    100.00% |           0      0.00%    100.00% |           0      0.00%    100.00% |           0      0.00%    100.00%
system.ruby.ST.latency_hist_seqr::total           657                      
system.ruby.dir_cntrl0.forwardToDir.avg_buf_msgs     0.245890                       # Average number of messages in buffer
system.ruby.dir_cntrl0.forwardToDir.avg_stall_time  5704.965049                       # Average number of cycles messages are stalled in this MB
system.ruby.dir_cntrl0.requestToDir.avg_buf_msgs     0.114748                       # Average number of messages in buffer
system.ruby.dir_cntrl0.requestToDir.avg_stall_time  4498.909668                       # Average number of cycles messages are stalled in this MB
system.ruby.dir_cntrl1.forwardToDir.avg_buf_msgs     0.245939                       # Average number of messages in buffer
system.ruby.dir_cntrl1.forwardToDir.avg_stall_time  5731.947327                       # Average number of cycles messages are stalled in this MB
system.ruby.dir_cntrl1.requestToDir.avg_buf_msgs     0.196712                       # Average number of messages in buffer
system.ruby.dir_cntrl1.requestToDir.avg_stall_time  5115.535050                       # Average number of cycles messages are stalled in this MB
system.ruby.dir_cntrl1.responseToDir.avg_buf_msgs     0.049178                       # Average number of messages in buffer
system.ruby.dir_cntrl1.responseToDir.avg_stall_time  5748.798956                       # Average number of cycles messages are stalled in this MB
system.ruby.dir_cntrl10.forwardToDir.avg_buf_msgs     0.131141                       # Average number of messages in buffer
system.ruby.dir_cntrl10.forwardToDir.avg_stall_time  4798.698188                       # Average number of cycles messages are stalled in this MB
system.ruby.dir_cntrl10.requestToDir.avg_buf_msgs     0.245890                       # Average number of messages in buffer
system.ruby.dir_cntrl10.requestToDir.avg_stall_time  6502.073348                       # Average number of cycles messages are stalled in this MB
system.ruby.dir_cntrl11.forwardToDir.avg_buf_msgs     0.114798                       # Average number of messages in buffer
system.ruby.dir_cntrl11.forwardToDir.avg_stall_time  6327.016393                       # Average number of cycles messages are stalled in this MB
system.ruby.dir_cntrl11.requestToDir.avg_buf_msgs     0.131141                       # Average number of messages in buffer
system.ruby.dir_cntrl11.requestToDir.avg_stall_time  6136.124151                       # Average number of cycles messages are stalled in this MB
system.ruby.dir_cntrl11.responseToDir.avg_buf_msgs     0.016393                       # Average number of messages in buffer
system.ruby.dir_cntrl11.responseToDir.avg_stall_time  2457.256080                       # Average number of cycles messages are stalled in this MB
system.ruby.dir_cntrl12.forwardToDir.avg_buf_msgs     0.131141                       # Average number of messages in buffer
system.ruby.dir_cntrl12.forwardToDir.avg_stall_time  5551.972580                       # Average number of cycles messages are stalled in this MB
system.ruby.dir_cntrl12.requestToDir.avg_buf_msgs     0.131141                       # Average number of messages in buffer
system.ruby.dir_cntrl12.requestToDir.avg_stall_time  5803.288077                       # Average number of cycles messages are stalled in this MB
system.ruby.dir_cntrl13.forwardToDir.avg_buf_msgs     0.131190                       # Average number of messages in buffer
system.ruby.dir_cntrl13.forwardToDir.avg_stall_time  5066.603032                       # Average number of cycles messages are stalled in this MB
system.ruby.dir_cntrl13.requestToDir.avg_buf_msgs     0.098356                       # Average number of messages in buffer
system.ruby.dir_cntrl13.requestToDir.avg_stall_time  6878.874471                       # Average number of cycles messages are stalled in this MB
system.ruby.dir_cntrl14.forwardToDir.avg_buf_msgs     0.098356                       # Average number of messages in buffer
system.ruby.dir_cntrl14.forwardToDir.avg_stall_time  5617.854583                       # Average number of cycles messages are stalled in this MB
system.ruby.dir_cntrl14.requestToDir.avg_buf_msgs     0.114748                       # Average number of messages in buffer
system.ruby.dir_cntrl14.requestToDir.avg_stall_time  5454.042975                       # Average number of cycles messages are stalled in this MB
system.ruby.dir_cntrl15.forwardToDir.avg_buf_msgs     0.163926                       # Average number of messages in buffer
system.ruby.dir_cntrl15.forwardToDir.avg_stall_time  6441.633701                       # Average number of cycles messages are stalled in this MB
system.ruby.dir_cntrl15.requestToDir.avg_buf_msgs     0.049178                       # Average number of messages in buffer
system.ruby.dir_cntrl15.requestToDir.avg_stall_time  5142.861573                       # Average number of cycles messages are stalled in this MB
system.ruby.dir_cntrl2.forwardToDir.avg_buf_msgs     0.245890                       # Average number of messages in buffer
system.ruby.dir_cntrl2.forwardToDir.avg_stall_time  4940.756769                       # Average number of cycles messages are stalled in this MB
system.ruby.dir_cntrl2.requestToDir.avg_buf_msgs     0.180319                       # Average number of messages in buffer
system.ruby.dir_cntrl2.requestToDir.avg_stall_time  4880.940041                       # Average number of cycles messages are stalled in this MB
system.ruby.dir_cntrl2.responseToDir.avg_buf_msgs     0.016393                       # Average number of messages in buffer
system.ruby.dir_cntrl2.responseToDir.avg_stall_time  2839.204490                       # Average number of cycles messages are stalled in this MB
system.ruby.dir_cntrl3.forwardToDir.avg_buf_msgs     0.180319                       # Average number of messages in buffer
system.ruby.dir_cntrl3.forwardToDir.avg_stall_time  5622.870730                       # Average number of cycles messages are stalled in this MB
system.ruby.dir_cntrl3.requestToDir.avg_buf_msgs     0.196712                       # Average number of messages in buffer
system.ruby.dir_cntrl3.requestToDir.avg_stall_time  5601.084917                       # Average number of cycles messages are stalled in this MB
system.ruby.dir_cntrl4.forwardToDir.avg_buf_msgs     0.245939                       # Average number of messages in buffer
system.ruby.dir_cntrl4.forwardToDir.avg_stall_time  4891.283794                       # Average number of cycles messages are stalled in this MB
system.ruby.dir_cntrl4.requestToDir.avg_buf_msgs     0.180319                       # Average number of messages in buffer
system.ruby.dir_cntrl4.requestToDir.avg_stall_time  5660.983607                       # Average number of cycles messages are stalled in this MB
system.ruby.dir_cntrl4.responseToDir.avg_buf_msgs     0.032785                       # Average number of messages in buffer
system.ruby.dir_cntrl4.responseToDir.avg_stall_time  2801.124397                       # Average number of cycles messages are stalled in this MB
system.ruby.dir_cntrl5.forwardToDir.avg_buf_msgs     0.278675                       # Average number of messages in buffer
system.ruby.dir_cntrl5.forwardToDir.avg_stall_time  5535.743871                       # Average number of cycles messages are stalled in this MB
system.ruby.dir_cntrl5.requestToDir.avg_buf_msgs     0.245890                       # Average number of messages in buffer
system.ruby.dir_cntrl5.requestToDir.avg_stall_time  5846.810525                       # Average number of cycles messages are stalled in this MB
system.ruby.dir_cntrl6.forwardToDir.avg_buf_msgs     0.213104                       # Average number of messages in buffer
system.ruby.dir_cntrl6.forwardToDir.avg_stall_time  5633.673476                       # Average number of cycles messages are stalled in this MB
system.ruby.dir_cntrl6.requestToDir.avg_buf_msgs     0.229546                       # Average number of messages in buffer
system.ruby.dir_cntrl6.requestToDir.avg_stall_time  4552.956188                       # Average number of cycles messages are stalled in this MB
system.ruby.dir_cntrl6.responseToDir.avg_buf_msgs     0.032785                       # Average number of messages in buffer
system.ruby.dir_cntrl6.responseToDir.avg_stall_time  3265.216304                       # Average number of cycles messages are stalled in this MB
system.ruby.dir_cntrl7.forwardToDir.avg_buf_msgs     0.098356                       # Average number of messages in buffer
system.ruby.dir_cntrl7.forwardToDir.avg_stall_time  3941.560057                       # Average number of cycles messages are stalled in this MB
system.ruby.dir_cntrl7.requestToDir.avg_buf_msgs     0.213153                       # Average number of messages in buffer
system.ruby.dir_cntrl7.requestToDir.avg_stall_time  6709.358226                       # Average number of cycles messages are stalled in this MB
system.ruby.dir_cntrl7.responseToDir.avg_buf_msgs     0.016393                       # Average number of messages in buffer
system.ruby.dir_cntrl7.responseToDir.avg_stall_time  1441.650340                       # Average number of cycles messages are stalled in this MB
system.ruby.dir_cntrl8.forwardToDir.avg_buf_msgs     0.114748                       # Average number of messages in buffer
system.ruby.dir_cntrl8.forwardToDir.avg_stall_time  6021.654376                       # Average number of cycles messages are stalled in this MB
system.ruby.dir_cntrl8.requestToDir.avg_buf_msgs     0.196712                       # Average number of messages in buffer
system.ruby.dir_cntrl8.requestToDir.avg_stall_time  5770.765088                       # Average number of cycles messages are stalled in this MB
system.ruby.dir_cntrl9.forwardToDir.avg_buf_msgs     0.163926                       # Average number of messages in buffer
system.ruby.dir_cntrl9.forwardToDir.avg_stall_time  6649.590676                       # Average number of cycles messages are stalled in this MB
system.ruby.dir_cntrl9.requestToDir.avg_buf_msgs     0.147534                       # Average number of messages in buffer
system.ruby.dir_cntrl9.requestToDir.avg_stall_time  6338.327311                       # Average number of cycles messages are stalled in this MB
system.ruby.hit_latency_hist_seqr::bucket_size            1                      
system.ruby.hit_latency_hist_seqr::max_bucket            9                      
system.ruby.hit_latency_hist_seqr::samples         1938                      
system.ruby.hit_latency_hist_seqr::mean      0.015996                      
system.ruby.hit_latency_hist_seqr::stdev     0.125492                      
system.ruby.hit_latency_hist_seqr        |        1907     98.40%     98.40% |          31      1.60%    100.00% |           0      0.00%    100.00% |           0      0.00%    100.00% |           0      0.00%    100.00% |           0      0.00%    100.00% |           0      0.00%    100.00% |           0      0.00%    100.00% |           0      0.00%    100.00% |           0      0.00%    100.00%
system.ruby.hit_latency_hist_seqr::total         1938                      
system.ruby.l1_cntrl0.cacheMemory.demand_accesses            0                       # Number of cache demand accesses
system.ruby.l1_cntrl0.cacheMemory.demand_hits            0                       # Number of cache demand hits
system.ruby.l1_cntrl0.cacheMemory.demand_misses            0                       # Number of cache demand misses
system.ruby.l1_cntrl0.forwardFromCache.avg_buf_msgs     0.196712                       # Average number of messages in buffer
system.ruby.l1_cntrl0.forwardFromCache.avg_stall_time   425.815103                       # Average number of cycles messages are stalled in this MB
system.ruby.l1_cntrl0.mandatoryQueue.avg_buf_msgs     0.442601                       # Average number of messages in buffer
system.ruby.l1_cntrl0.mandatoryQueue.avg_stall_time   327.541252                       # Average number of cycles messages are stalled in this MB
system.ruby.l1_cntrl0.requestFromCache.avg_buf_msgs     0.229497                       # Average number of messages in buffer
system.ruby.l1_cntrl0.requestFromCache.avg_stall_time   458.567589                       # Average number of cycles messages are stalled in this MB
system.ruby.l1_cntrl0.responseFromCache.avg_buf_msgs     1.032933                       # Average number of messages in buffer
system.ruby.l1_cntrl0.responseFromCache.avg_stall_time  1157.418431                       # Average number of cycles messages are stalled in this MB
system.ruby.l1_cntrl1.cacheMemory.demand_accesses            0                       # Number of cache demand accesses
system.ruby.l1_cntrl1.cacheMemory.demand_hits            0                       # Number of cache demand hits
system.ruby.l1_cntrl1.cacheMemory.demand_misses            0                       # Number of cache demand misses
system.ruby.l1_cntrl1.forwardFromCache.avg_buf_msgs     0.426209                       # Average number of messages in buffer
system.ruby.l1_cntrl1.forwardFromCache.avg_stall_time   600.495028                       # Average number of cycles messages are stalled in this MB
system.ruby.l1_cntrl1.mandatoryQueue.avg_buf_msgs     0.458994                       # Average number of messages in buffer
system.ruby.l1_cntrl1.mandatoryQueue.avg_stall_time   316.623757                       # Average number of cycles messages are stalled in this MB
system.ruby.l1_cntrl1.requestFromCache.avg_buf_msgs     0.262282                       # Average number of messages in buffer
system.ruby.l1_cntrl1.requestFromCache.avg_stall_time   611.412523                       # Average number of cycles messages are stalled in this MB
system.ruby.l1_cntrl1.responseFromCache.avg_buf_msgs     0.229546                       # Average number of messages in buffer
system.ruby.l1_cntrl1.responseFromCache.avg_stall_time   704.211234                       # Average number of cycles messages are stalled in this MB
system.ruby.l1_cntrl10.cacheMemory.demand_accesses            0                       # Number of cache demand accesses
system.ruby.l1_cntrl10.cacheMemory.demand_hits            0                       # Number of cache demand hits
system.ruby.l1_cntrl10.cacheMemory.demand_misses            0                       # Number of cache demand misses
system.ruby.l1_cntrl10.forwardFromCache.avg_buf_msgs     0.541055                       # Average number of messages in buffer
system.ruby.l1_cntrl10.forwardFromCache.avg_stall_time   556.825047                       # Average number of cycles messages are stalled in this MB
system.ruby.l1_cntrl10.mandatoryQueue.avg_buf_msgs     0.508172                       # Average number of messages in buffer
system.ruby.l1_cntrl10.mandatoryQueue.avg_stall_time   305.706262                       # Average number of cycles messages are stalled in this MB
system.ruby.l1_cntrl10.requestFromCache.avg_buf_msgs     0.262282                       # Average number of messages in buffer
system.ruby.l1_cntrl10.requestFromCache.avg_stall_time   589.577533                       # Average number of cycles messages are stalled in this MB
system.ruby.l1_cntrl10.responseFromCache.avg_buf_msgs     0.180368                       # Average number of messages in buffer
system.ruby.l1_cntrl10.responseFromCache.avg_stall_time   480.402580                       # Average number of cycles messages are stalled in this MB
system.ruby.l1_cntrl11.cacheMemory.demand_accesses            0                       # Number of cache demand accesses
system.ruby.l1_cntrl11.cacheMemory.demand_hits            0                       # Number of cache demand hits
system.ruby.l1_cntrl11.cacheMemory.demand_misses            0                       # Number of cache demand misses
system.ruby.l1_cntrl11.forwardFromCache.avg_buf_msgs     0.295067                       # Average number of messages in buffer
system.ruby.l1_cntrl11.forwardFromCache.avg_stall_time   545.907551                       # Average number of cycles messages are stalled in this MB
system.ruby.l1_cntrl11.mandatoryQueue.avg_buf_msgs     0.491779                       # Average number of messages in buffer
system.ruby.l1_cntrl11.mandatoryQueue.avg_stall_time   322.082505                       # Average number of cycles messages are stalled in this MB
system.ruby.l1_cntrl11.requestFromCache.avg_buf_msgs     0.327853                       # Average number of messages in buffer
system.ruby.l1_cntrl11.requestFromCache.avg_stall_time   414.897608                       # Average number of cycles messages are stalled in this MB
system.ruby.l1_cntrl11.responseFromCache.avg_buf_msgs     0.803387                       # Average number of messages in buffer
system.ruby.l1_cntrl11.responseFromCache.avg_stall_time  1080.979571                       # Average number of cycles messages are stalled in this MB
system.ruby.l1_cntrl12.cacheMemory.demand_accesses            0                       # Number of cache demand accesses
system.ruby.l1_cntrl12.cacheMemory.demand_hits            0                       # Number of cache demand hits
system.ruby.l1_cntrl12.cacheMemory.demand_misses            0                       # Number of cache demand misses
system.ruby.l1_cntrl12.forwardFromCache.avg_buf_msgs     0.163926                       # Average number of messages in buffer
system.ruby.l1_cntrl12.forwardFromCache.avg_stall_time   600.495028                       # Average number of cycles messages are stalled in this MB
system.ruby.l1_cntrl12.mandatoryQueue.avg_buf_msgs     0.426209                       # Average number of messages in buffer
system.ruby.l1_cntrl12.mandatoryQueue.avg_stall_time   316.623757                       # Average number of cycles messages are stalled in this MB
system.ruby.l1_cntrl12.requestFromCache.avg_buf_msgs     0.262282                       # Average number of messages in buffer
system.ruby.l1_cntrl12.requestFromCache.avg_stall_time   480.402580                       # Average number of cycles messages are stalled in this MB
system.ruby.l1_cntrl12.responseFromCache.avg_buf_msgs     0.934479                       # Average number of messages in buffer
system.ruby.l1_cntrl12.responseFromCache.avg_stall_time   993.623216                       # Average number of cycles messages are stalled in this MB
system.ruby.l1_cntrl13.cacheMemory.demand_accesses            0                       # Number of cache demand accesses
system.ruby.l1_cntrl13.cacheMemory.demand_hits            0                       # Number of cache demand hits
system.ruby.l1_cntrl13.cacheMemory.demand_misses            0                       # Number of cache demand misses
system.ruby.l1_cntrl13.forwardFromCache.avg_buf_msgs     0.426258                       # Average number of messages in buffer
system.ruby.l1_cntrl13.forwardFromCache.avg_stall_time   851.597420                       # Average number of cycles messages are stalled in this MB
system.ruby.l1_cntrl13.mandatoryQueue.avg_buf_msgs     0.573791                       # Average number of messages in buffer
system.ruby.l1_cntrl13.mandatoryQueue.avg_stall_time   322.082505                       # Average number of cycles messages are stalled in this MB
system.ruby.l1_cntrl13.requestFromCache.avg_buf_msgs     0.557350                       # Average number of messages in buffer
system.ruby.l1_cntrl13.requestFromCache.avg_stall_time   715.210692                       # Average number of cycles messages are stalled in this MB
system.ruby.l1_cntrl13.responseFromCache.avg_buf_msgs     1.426405                       # Average number of messages in buffer
system.ruby.l1_cntrl13.responseFromCache.avg_stall_time  2445.895983                       # Average number of cycles messages are stalled in this MB
system.ruby.l1_cntrl14.cacheMemory.demand_accesses            0                       # Number of cache demand accesses
system.ruby.l1_cntrl14.cacheMemory.demand_hits            0                       # Number of cache demand hits
system.ruby.l1_cntrl14.cacheMemory.demand_misses            0                       # Number of cache demand misses
system.ruby.l1_cntrl14.forwardFromCache.avg_buf_msgs     0.295067                       # Average number of messages in buffer
system.ruby.l1_cntrl14.forwardFromCache.avg_stall_time   633.247514                       # Average number of cycles messages are stalled in this MB
system.ruby.l1_cntrl14.mandatoryQueue.avg_buf_msgs     0.524564                       # Average number of messages in buffer
system.ruby.l1_cntrl14.mandatoryQueue.avg_stall_time   327.541252                       # Average number of cycles messages are stalled in this MB
system.ruby.l1_cntrl14.requestFromCache.avg_buf_msgs     0.393423                       # Average number of messages in buffer
system.ruby.l1_cntrl14.requestFromCache.avg_stall_time   567.742542                       # Average number of cycles messages are stalled in this MB
system.ruby.l1_cntrl14.responseFromCache.avg_buf_msgs     2.082111                       # Average number of messages in buffer
system.ruby.l1_cntrl14.responseFromCache.avg_stall_time  1856.318450                       # Average number of cycles messages are stalled in this MB
system.ruby.l1_cntrl15.cacheMemory.demand_accesses            0                       # Number of cache demand accesses
system.ruby.l1_cntrl15.cacheMemory.demand_hits            0                       # Number of cache demand hits
system.ruby.l1_cntrl15.cacheMemory.demand_misses            0                       # Number of cache demand misses
system.ruby.l1_cntrl15.forwardFromCache.avg_buf_msgs     0.295067                       # Average number of messages in buffer
system.ruby.l1_cntrl15.forwardFromCache.avg_stall_time   524.072561                       # Average number of cycles messages are stalled in this MB
system.ruby.l1_cntrl15.mandatoryQueue.avg_buf_msgs     0.491779                       # Average number of messages in buffer
system.ruby.l1_cntrl15.mandatoryQueue.avg_stall_time   327.541252                       # Average number of cycles messages are stalled in this MB
system.ruby.l1_cntrl15.requestFromCache.avg_buf_msgs     0.344344                       # Average number of messages in buffer
system.ruby.l1_cntrl15.requestFromCache.avg_stall_time   600.495028                       # Average number of cycles messages are stalled in this MB
system.ruby.l1_cntrl15.responseFromCache.avg_buf_msgs     1.409767                       # Average number of messages in buffer
system.ruby.l1_cntrl15.responseFromCache.avg_stall_time  3504.548784                       # Average number of cycles messages are stalled in this MB
system.ruby.l1_cntrl16.cacheMemory.demand_accesses            0                       # Number of cache demand accesses
system.ruby.l1_cntrl16.cacheMemory.demand_hits            0                       # Number of cache demand hits
system.ruby.l1_cntrl16.cacheMemory.demand_misses            0                       # Number of cache demand misses
system.ruby.l1_cntrl16.forwardFromCache.avg_buf_msgs     0.262282                       # Average number of messages in buffer
system.ruby.l1_cntrl16.forwardFromCache.avg_stall_time   633.247514                       # Average number of cycles messages are stalled in this MB
system.ruby.l1_cntrl16.mandatoryQueue.avg_buf_msgs     0.508221                       # Average number of messages in buffer
system.ruby.l1_cntrl16.mandatoryQueue.avg_stall_time   327.541252                       # Average number of cycles messages are stalled in this MB
system.ruby.l1_cntrl16.requestFromCache.avg_buf_msgs     0.426209                       # Average number of messages in buffer
system.ruby.l1_cntrl16.requestFromCache.avg_stall_time   567.742542                       # Average number of cycles messages are stalled in this MB
system.ruby.l1_cntrl16.responseFromCache.avg_buf_msgs     0.803338                       # Average number of messages in buffer
system.ruby.l1_cntrl16.responseFromCache.avg_stall_time   780.814020                       # Average number of cycles messages are stalled in this MB
system.ruby.l1_cntrl17.cacheMemory.demand_accesses            0                       # Number of cache demand accesses
system.ruby.l1_cntrl17.cacheMemory.demand_hits            0                       # Number of cache demand hits
system.ruby.l1_cntrl17.cacheMemory.demand_misses            0                       # Number of cache demand misses
system.ruby.l1_cntrl17.forwardFromCache.avg_buf_msgs     0.229497                       # Average number of messages in buffer
system.ruby.l1_cntrl17.forwardFromCache.avg_stall_time   567.742542                       # Average number of cycles messages are stalled in this MB
system.ruby.l1_cntrl17.mandatoryQueue.avg_buf_msgs     0.458994                       # Average number of messages in buffer
system.ruby.l1_cntrl17.mandatoryQueue.avg_stall_time   327.541252                       # Average number of cycles messages are stalled in this MB
system.ruby.l1_cntrl17.requestFromCache.avg_buf_msgs     0.393423                       # Average number of messages in buffer
system.ruby.l1_cntrl17.requestFromCache.avg_stall_time   534.990056                       # Average number of cycles messages are stalled in this MB
system.ruby.l1_cntrl17.responseFromCache.avg_buf_msgs     0.819681                       # Average number of messages in buffer
system.ruby.l1_cntrl17.responseFromCache.avg_stall_time  2653.098897                       # Average number of cycles messages are stalled in this MB
system.ruby.l1_cntrl18.cacheMemory.demand_accesses            0                       # Number of cache demand accesses
system.ruby.l1_cntrl18.cacheMemory.demand_hits            0                       # Number of cache demand hits
system.ruby.l1_cntrl18.cacheMemory.demand_misses            0                       # Number of cache demand misses
system.ruby.l1_cntrl18.forwardFromCache.avg_buf_msgs     0.262282                       # Average number of messages in buffer
system.ruby.l1_cntrl18.forwardFromCache.avg_stall_time   611.412523                       # Average number of cycles messages are stalled in this MB
system.ruby.l1_cntrl18.mandatoryQueue.avg_buf_msgs     0.491828                       # Average number of messages in buffer
system.ruby.l1_cntrl18.mandatoryQueue.avg_stall_time   327.541252                       # Average number of cycles messages are stalled in this MB
system.ruby.l1_cntrl18.requestFromCache.avg_buf_msgs     0.377129                       # Average number of messages in buffer
system.ruby.l1_cntrl18.requestFromCache.avg_stall_time   666.016393                       # Average number of cycles messages are stalled in this MB
system.ruby.l1_cntrl18.responseFromCache.avg_buf_msgs     0.754258                       # Average number of messages in buffer
system.ruby.l1_cntrl18.responseFromCache.avg_stall_time   764.306636                       # Average number of cycles messages are stalled in this MB
system.ruby.l1_cntrl19.cacheMemory.demand_accesses            0                       # Number of cache demand accesses
system.ruby.l1_cntrl19.cacheMemory.demand_hits            0                       # Number of cache demand hits
system.ruby.l1_cntrl19.cacheMemory.demand_misses            0                       # Number of cache demand misses
system.ruby.l1_cntrl19.forwardFromCache.avg_buf_msgs     0.295067                       # Average number of messages in buffer
system.ruby.l1_cntrl19.forwardFromCache.avg_stall_time   600.495028                       # Average number of cycles messages are stalled in this MB
system.ruby.l1_cntrl19.mandatoryQueue.avg_buf_msgs     0.409865                       # Average number of messages in buffer
system.ruby.l1_cntrl19.mandatoryQueue.avg_stall_time   316.623757                       # Average number of cycles messages are stalled in this MB
system.ruby.l1_cntrl19.requestFromCache.avg_buf_msgs     0.295067                       # Average number of messages in buffer
system.ruby.l1_cntrl19.requestFromCache.avg_stall_time   611.412523                       # Average number of cycles messages are stalled in this MB
system.ruby.l1_cntrl19.responseFromCache.avg_buf_msgs     0.196761                       # Average number of messages in buffer
system.ruby.l1_cntrl19.responseFromCache.avg_stall_time   556.825047                       # Average number of cycles messages are stalled in this MB
system.ruby.l1_cntrl2.cacheMemory.demand_accesses            0                       # Number of cache demand accesses
system.ruby.l1_cntrl2.cacheMemory.demand_hits            0                       # Number of cache demand hits
system.ruby.l1_cntrl2.cacheMemory.demand_misses            0                       # Number of cache demand misses
system.ruby.l1_cntrl2.forwardFromCache.avg_buf_msgs     0.229497                       # Average number of messages in buffer
system.ruby.l1_cntrl2.forwardFromCache.avg_stall_time   589.577533                       # Average number of cycles messages are stalled in this MB
system.ruby.l1_cntrl2.mandatoryQueue.avg_buf_msgs     0.475386                       # Average number of messages in buffer
system.ruby.l1_cntrl2.mandatoryQueue.avg_stall_time   327.541252                       # Average number of cycles messages are stalled in this MB
system.ruby.l1_cntrl2.requestFromCache.avg_buf_msgs     0.295117                       # Average number of messages in buffer
system.ruby.l1_cntrl2.requestFromCache.avg_stall_time   447.650094                       # Average number of cycles messages are stalled in this MB
system.ruby.l1_cntrl2.responseFromCache.avg_buf_msgs     0.836221                       # Average number of messages in buffer
system.ruby.l1_cntrl2.responseFromCache.avg_stall_time   993.574038                       # Average number of cycles messages are stalled in this MB
system.ruby.l1_cntrl20.cacheMemory.demand_accesses            0                       # Number of cache demand accesses
system.ruby.l1_cntrl20.cacheMemory.demand_hits            0                       # Number of cache demand hits
system.ruby.l1_cntrl20.cacheMemory.demand_misses            0                       # Number of cache demand misses
system.ruby.l1_cntrl20.forwardFromCache.avg_buf_msgs     0.327853                       # Average number of messages in buffer
system.ruby.l1_cntrl20.forwardFromCache.avg_stall_time   633.247514                       # Average number of cycles messages are stalled in this MB
system.ruby.l1_cntrl20.mandatoryQueue.avg_buf_msgs     0.622969                       # Average number of messages in buffer
system.ruby.l1_cntrl20.mandatoryQueue.avg_stall_time   327.541252                       # Average number of cycles messages are stalled in this MB
system.ruby.l1_cntrl20.requestFromCache.avg_buf_msgs     0.393423                       # Average number of messages in buffer
system.ruby.l1_cntrl20.requestFromCache.avg_stall_time   611.412523                       # Average number of cycles messages are stalled in this MB
system.ruby.l1_cntrl20.responseFromCache.avg_buf_msgs     2.738013                       # Average number of messages in buffer
system.ruby.l1_cntrl20.responseFromCache.avg_stall_time  3635.952151                       # Average number of cycles messages are stalled in this MB
system.ruby.l1_cntrl21.cacheMemory.demand_accesses            0                       # Number of cache demand accesses
system.ruby.l1_cntrl21.cacheMemory.demand_hits            0                       # Number of cache demand hits
system.ruby.l1_cntrl21.cacheMemory.demand_misses            0                       # Number of cache demand misses
system.ruby.l1_cntrl21.forwardFromCache.avg_buf_msgs     0.442650                       # Average number of messages in buffer
system.ruby.l1_cntrl21.forwardFromCache.avg_stall_time   753.438318                       # Average number of cycles messages are stalled in this MB
system.ruby.l1_cntrl21.mandatoryQueue.avg_buf_msgs     0.573791                       # Average number of messages in buffer
system.ruby.l1_cntrl21.mandatoryQueue.avg_stall_time   327.541252                       # Average number of cycles messages are stalled in this MB
system.ruby.l1_cntrl21.requestFromCache.avg_buf_msgs     0.262282                       # Average number of messages in buffer
system.ruby.l1_cntrl21.requestFromCache.avg_stall_time   393.062617                       # Average number of cycles messages are stalled in this MB
system.ruby.l1_cntrl21.responseFromCache.avg_buf_msgs     2.147977                       # Average number of messages in buffer
system.ruby.l1_cntrl21.responseFromCache.avg_stall_time  1474.009402                       # Average number of cycles messages are stalled in this MB
system.ruby.l1_cntrl22.cacheMemory.demand_accesses            0                       # Number of cache demand accesses
system.ruby.l1_cntrl22.cacheMemory.demand_hits            0                       # Number of cache demand hits
system.ruby.l1_cntrl22.cacheMemory.demand_misses            0                       # Number of cache demand misses
system.ruby.l1_cntrl22.forwardFromCache.avg_buf_msgs     0.868957                       # Average number of messages in buffer
system.ruby.l1_cntrl22.forwardFromCache.avg_stall_time   791.633159                       # Average number of cycles messages are stalled in this MB
system.ruby.l1_cntrl22.mandatoryQueue.avg_buf_msgs     0.573742                       # Average number of messages in buffer
system.ruby.l1_cntrl22.mandatoryQueue.avg_stall_time   327.541252                       # Average number of cycles messages are stalled in this MB
system.ruby.l1_cntrl22.requestFromCache.avg_buf_msgs     0.557448                       # Average number of messages in buffer
system.ruby.l1_cntrl22.requestFromCache.avg_stall_time   999.131141                       # Average number of cycles messages are stalled in this MB
system.ruby.l1_cntrl22.responseFromCache.avg_buf_msgs     2.393522                       # Average number of messages in buffer
system.ruby.l1_cntrl22.responseFromCache.avg_stall_time  3395.554150                       # Average number of cycles messages are stalled in this MB
system.ruby.l1_cntrl23.cacheMemory.demand_accesses            0                       # Number of cache demand accesses
system.ruby.l1_cntrl23.cacheMemory.demand_hits            0                       # Number of cache demand hits
system.ruby.l1_cntrl23.cacheMemory.demand_misses            0                       # Number of cache demand misses
system.ruby.l1_cntrl23.forwardFromCache.avg_buf_msgs     0.409865                       # Average number of messages in buffer
system.ruby.l1_cntrl23.forwardFromCache.avg_stall_time   611.412523                       # Average number of cycles messages are stalled in this MB
system.ruby.l1_cntrl23.mandatoryQueue.avg_buf_msgs     0.524564                       # Average number of messages in buffer
system.ruby.l1_cntrl23.mandatoryQueue.avg_stall_time   316.623757                       # Average number of cycles messages are stalled in this MB
system.ruby.l1_cntrl23.requestFromCache.avg_buf_msgs     0.262282                       # Average number of messages in buffer
system.ruby.l1_cntrl23.requestFromCache.avg_stall_time   534.990056                       # Average number of cycles messages are stalled in this MB
system.ruby.l1_cntrl23.responseFromCache.avg_buf_msgs     1.114798                       # Average number of messages in buffer
system.ruby.l1_cntrl23.responseFromCache.avg_stall_time   868.153982                       # Average number of cycles messages are stalled in this MB
system.ruby.l1_cntrl24.cacheMemory.demand_accesses            0                       # Number of cache demand accesses
system.ruby.l1_cntrl24.cacheMemory.demand_hits            0                       # Number of cache demand hits
system.ruby.l1_cntrl24.cacheMemory.demand_misses            0                       # Number of cache demand misses
system.ruby.l1_cntrl24.forwardFromCache.avg_buf_msgs     0.229497                       # Average number of messages in buffer
system.ruby.l1_cntrl24.forwardFromCache.avg_stall_time   458.567589                       # Average number of cycles messages are stalled in this MB
system.ruby.l1_cntrl24.mandatoryQueue.avg_buf_msgs     0.459043                       # Average number of messages in buffer
system.ruby.l1_cntrl24.mandatoryQueue.avg_stall_time   322.082505                       # Average number of cycles messages are stalled in this MB
system.ruby.l1_cntrl24.requestFromCache.avg_buf_msgs     0.229497                       # Average number of messages in buffer
system.ruby.l1_cntrl24.requestFromCache.avg_stall_time   425.815103                       # Average number of cycles messages are stalled in this MB
system.ruby.l1_cntrl24.responseFromCache.avg_buf_msgs     1.377129                       # Average number of messages in buffer
system.ruby.l1_cntrl24.responseFromCache.avg_stall_time  1304.821010                       # Average number of cycles messages are stalled in this MB
system.ruby.l1_cntrl25.cacheMemory.demand_accesses            0                       # Number of cache demand accesses
system.ruby.l1_cntrl25.cacheMemory.demand_hits            0                       # Number of cache demand hits
system.ruby.l1_cntrl25.cacheMemory.demand_misses            0                       # Number of cache demand misses
system.ruby.l1_cntrl25.forwardFromCache.avg_buf_msgs     0.393423                       # Average number of messages in buffer
system.ruby.l1_cntrl25.forwardFromCache.avg_stall_time   633.247514                       # Average number of cycles messages are stalled in this MB
system.ruby.l1_cntrl25.mandatoryQueue.avg_buf_msgs     0.491828                       # Average number of messages in buffer
system.ruby.l1_cntrl25.mandatoryQueue.avg_stall_time   327.541252                       # Average number of cycles messages are stalled in this MB
system.ruby.l1_cntrl25.requestFromCache.avg_buf_msgs     0.360638                       # Average number of messages in buffer
system.ruby.l1_cntrl25.requestFromCache.avg_stall_time   622.330019                       # Average number of cycles messages are stalled in this MB
system.ruby.l1_cntrl25.responseFromCache.avg_buf_msgs     0.737669                       # Average number of messages in buffer
system.ruby.l1_cntrl25.responseFromCache.avg_stall_time  2047.423796                       # Average number of cycles messages are stalled in this MB
system.ruby.l1_cntrl26.cacheMemory.demand_accesses            0                       # Number of cache demand accesses
system.ruby.l1_cntrl26.cacheMemory.demand_hits            0                       # Number of cache demand hits
system.ruby.l1_cntrl26.cacheMemory.demand_misses            0                       # Number of cache demand misses
system.ruby.l1_cntrl26.forwardFromCache.avg_buf_msgs     0.295117                       # Average number of messages in buffer
system.ruby.l1_cntrl26.forwardFromCache.avg_stall_time   600.495028                       # Average number of cycles messages are stalled in this MB
system.ruby.l1_cntrl26.mandatoryQueue.avg_buf_msgs     0.524564                       # Average number of messages in buffer
system.ruby.l1_cntrl26.mandatoryQueue.avg_stall_time   327.541252                       # Average number of cycles messages are stalled in this MB
system.ruby.l1_cntrl26.requestFromCache.avg_buf_msgs     0.295067                       # Average number of messages in buffer
system.ruby.l1_cntrl26.requestFromCache.avg_stall_time   567.742542                       # Average number of cycles messages are stalled in this MB
system.ruby.l1_cntrl26.responseFromCache.avg_buf_msgs     2.623068                       # Average number of messages in buffer
system.ruby.l1_cntrl26.responseFromCache.avg_stall_time  3177.269814                       # Average number of cycles messages are stalled in this MB
system.ruby.l1_cntrl27.cacheMemory.demand_accesses            0                       # Number of cache demand accesses
system.ruby.l1_cntrl27.cacheMemory.demand_hits            0                       # Number of cache demand hits
system.ruby.l1_cntrl27.cacheMemory.demand_misses            0                       # Number of cache demand misses
system.ruby.l1_cntrl27.forwardFromCache.avg_buf_msgs     0.229497                       # Average number of messages in buffer
system.ruby.l1_cntrl27.forwardFromCache.avg_stall_time   524.072561                       # Average number of cycles messages are stalled in this MB
system.ruby.l1_cntrl27.mandatoryQueue.avg_buf_msgs     0.491779                       # Average number of messages in buffer
system.ruby.l1_cntrl27.mandatoryQueue.avg_stall_time   322.082505                       # Average number of cycles messages are stalled in this MB
system.ruby.l1_cntrl27.requestFromCache.avg_buf_msgs     0.327853                       # Average number of messages in buffer
system.ruby.l1_cntrl27.requestFromCache.avg_stall_time   611.412523                       # Average number of cycles messages are stalled in this MB
system.ruby.l1_cntrl27.responseFromCache.avg_buf_msgs     0.836172                       # Average number of messages in buffer
system.ruby.l1_cntrl27.responseFromCache.avg_stall_time   780.797627                       # Average number of cycles messages are stalled in this MB
system.ruby.l1_cntrl28.cacheMemory.demand_accesses            0                       # Number of cache demand accesses
system.ruby.l1_cntrl28.cacheMemory.demand_hits            0                       # Number of cache demand hits
system.ruby.l1_cntrl28.cacheMemory.demand_misses            0                       # Number of cache demand misses
system.ruby.l1_cntrl28.forwardFromCache.avg_buf_msgs     0.295067                       # Average number of messages in buffer
system.ruby.l1_cntrl28.forwardFromCache.avg_stall_time   622.330019                       # Average number of cycles messages are stalled in this MB
system.ruby.l1_cntrl28.mandatoryQueue.avg_buf_msgs     0.409865                       # Average number of messages in buffer
system.ruby.l1_cntrl28.mandatoryQueue.avg_stall_time   327.541252                       # Average number of cycles messages are stalled in this MB
system.ruby.l1_cntrl28.requestFromCache.avg_buf_msgs     0.327853                       # Average number of messages in buffer
system.ruby.l1_cntrl28.requestFromCache.avg_stall_time   633.247514                       # Average number of cycles messages are stalled in this MB
system.ruby.l1_cntrl28.responseFromCache.avg_buf_msgs     0.196712                       # Average number of messages in buffer
system.ruby.l1_cntrl28.responseFromCache.avg_stall_time   589.577533                       # Average number of cycles messages are stalled in this MB
system.ruby.l1_cntrl29.cacheMemory.demand_accesses            0                       # Number of cache demand accesses
system.ruby.l1_cntrl29.cacheMemory.demand_hits            0                       # Number of cache demand hits
system.ruby.l1_cntrl29.cacheMemory.demand_misses            0                       # Number of cache demand misses
system.ruby.l1_cntrl29.forwardFromCache.avg_buf_msgs     0.573791                       # Average number of messages in buffer
system.ruby.l1_cntrl29.forwardFromCache.avg_stall_time   611.412523                       # Average number of cycles messages are stalled in this MB
system.ruby.l1_cntrl29.mandatoryQueue.avg_buf_msgs     0.573791                       # Average number of messages in buffer
system.ruby.l1_cntrl29.mandatoryQueue.avg_stall_time   327.541252                       # Average number of cycles messages are stalled in this MB
system.ruby.l1_cntrl29.requestFromCache.avg_buf_msgs     0.245939                       # Average number of messages in buffer
system.ruby.l1_cntrl29.requestFromCache.avg_stall_time   556.825047                       # Average number of cycles messages are stalled in this MB
system.ruby.l1_cntrl29.responseFromCache.avg_buf_msgs     1.590233                       # Average number of messages in buffer
system.ruby.l1_cntrl29.responseFromCache.avg_stall_time  2009.163385                       # Average number of cycles messages are stalled in this MB
system.ruby.l1_cntrl3.cacheMemory.demand_accesses            0                       # Number of cache demand accesses
system.ruby.l1_cntrl3.cacheMemory.demand_hits            0                       # Number of cache demand hits
system.ruby.l1_cntrl3.cacheMemory.demand_misses            0                       # Number of cache demand misses
system.ruby.l1_cntrl3.forwardFromCache.avg_buf_msgs     0.327853                       # Average number of messages in buffer
system.ruby.l1_cntrl3.forwardFromCache.avg_stall_time   600.495028                       # Average number of cycles messages are stalled in this MB
system.ruby.l1_cntrl3.mandatoryQueue.avg_buf_msgs     0.377080                       # Average number of messages in buffer
system.ruby.l1_cntrl3.mandatoryQueue.avg_stall_time   322.082505                       # Average number of cycles messages are stalled in this MB
system.ruby.l1_cntrl3.requestFromCache.avg_buf_msgs     0.311509                       # Average number of messages in buffer
system.ruby.l1_cntrl3.requestFromCache.avg_stall_time   622.330019                       # Average number of cycles messages are stalled in this MB
system.ruby.l1_cntrl3.responseFromCache.avg_buf_msgs     0.098356                       # Average number of messages in buffer
system.ruby.l1_cntrl3.responseFromCache.avg_stall_time   469.485084                       # Average number of cycles messages are stalled in this MB
system.ruby.l1_cntrl30.cacheMemory.demand_accesses            0                       # Number of cache demand accesses
system.ruby.l1_cntrl30.cacheMemory.demand_hits            0                       # Number of cache demand hits
system.ruby.l1_cntrl30.cacheMemory.demand_misses            0                       # Number of cache demand misses
system.ruby.l1_cntrl30.forwardFromCache.avg_buf_msgs     0.426209                       # Average number of messages in buffer
system.ruby.l1_cntrl30.forwardFromCache.avg_stall_time   524.072561                       # Average number of cycles messages are stalled in this MB
system.ruby.l1_cntrl30.mandatoryQueue.avg_buf_msgs     0.442650                       # Average number of messages in buffer
system.ruby.l1_cntrl30.mandatoryQueue.avg_stall_time   327.541252                       # Average number of cycles messages are stalled in this MB
system.ruby.l1_cntrl30.requestFromCache.avg_buf_msgs     0.295067                       # Average number of messages in buffer
system.ruby.l1_cntrl30.requestFromCache.avg_stall_time   633.247514                       # Average number of cycles messages are stalled in this MB
system.ruby.l1_cntrl30.responseFromCache.avg_buf_msgs     0.163926                       # Average number of messages in buffer
system.ruby.l1_cntrl30.responseFromCache.avg_stall_time   611.412523                       # Average number of cycles messages are stalled in this MB
system.ruby.l1_cntrl31.cacheMemory.demand_accesses            0                       # Number of cache demand accesses
system.ruby.l1_cntrl31.cacheMemory.demand_hits            0                       # Number of cache demand hits
system.ruby.l1_cntrl31.cacheMemory.demand_misses            0                       # Number of cache demand misses
system.ruby.l1_cntrl31.forwardFromCache.avg_buf_msgs     0.377080                       # Average number of messages in buffer
system.ruby.l1_cntrl31.forwardFromCache.avg_stall_time   534.990056                       # Average number of cycles messages are stalled in this MB
system.ruby.l1_cntrl31.mandatoryQueue.avg_buf_msgs     0.475436                       # Average number of messages in buffer
system.ruby.l1_cntrl31.mandatoryQueue.avg_stall_time   327.541252                       # Average number of cycles messages are stalled in this MB
system.ruby.l1_cntrl31.requestFromCache.avg_buf_msgs     0.360638                       # Average number of messages in buffer
system.ruby.l1_cntrl31.requestFromCache.avg_stall_time   633.247514                       # Average number of cycles messages are stalled in this MB
system.ruby.l1_cntrl31.responseFromCache.avg_buf_msgs     0.196712                       # Average number of messages in buffer
system.ruby.l1_cntrl31.responseFromCache.avg_stall_time   622.330019                       # Average number of cycles messages are stalled in this MB
system.ruby.l1_cntrl32.cacheMemory.demand_accesses            0                       # Number of cache demand accesses
system.ruby.l1_cntrl32.cacheMemory.demand_hits            0                       # Number of cache demand hits
system.ruby.l1_cntrl32.cacheMemory.demand_misses            0                       # Number of cache demand misses
system.ruby.l1_cntrl32.forwardFromCache.avg_buf_msgs     0.229497                       # Average number of messages in buffer
system.ruby.l1_cntrl32.forwardFromCache.avg_stall_time   524.072561                       # Average number of cycles messages are stalled in this MB
system.ruby.l1_cntrl32.mandatoryQueue.avg_buf_msgs     0.508221                       # Average number of messages in buffer
system.ruby.l1_cntrl32.mandatoryQueue.avg_stall_time   316.623757                       # Average number of cycles messages are stalled in this MB
system.ruby.l1_cntrl32.requestFromCache.avg_buf_msgs     0.344295                       # Average number of messages in buffer
system.ruby.l1_cntrl32.requestFromCache.avg_stall_time   611.412523                       # Average number of cycles messages are stalled in this MB
system.ruby.l1_cntrl32.responseFromCache.avg_buf_msgs     1.131338                       # Average number of messages in buffer
system.ruby.l1_cntrl32.responseFromCache.avg_stall_time   829.909964                       # Average number of cycles messages are stalled in this MB
system.ruby.l1_cntrl33.cacheMemory.demand_accesses            0                       # Number of cache demand accesses
system.ruby.l1_cntrl33.cacheMemory.demand_hits            0                       # Number of cache demand hits
system.ruby.l1_cntrl33.cacheMemory.demand_misses            0                       # Number of cache demand misses
system.ruby.l1_cntrl33.forwardFromCache.avg_buf_msgs     0.327853                       # Average number of messages in buffer
system.ruby.l1_cntrl33.forwardFromCache.avg_stall_time   524.072561                       # Average number of cycles messages are stalled in this MB
system.ruby.l1_cntrl33.mandatoryQueue.avg_buf_msgs     0.491779                       # Average number of messages in buffer
system.ruby.l1_cntrl33.mandatoryQueue.avg_stall_time   327.541252                       # Average number of cycles messages are stalled in this MB
system.ruby.l1_cntrl33.requestFromCache.avg_buf_msgs     0.393423                       # Average number of messages in buffer
system.ruby.l1_cntrl33.requestFromCache.avg_stall_time   633.247514                       # Average number of cycles messages are stalled in this MB
system.ruby.l1_cntrl33.responseFromCache.avg_buf_msgs     0.295117                       # Average number of messages in buffer
system.ruby.l1_cntrl33.responseFromCache.avg_stall_time   676.917495                       # Average number of cycles messages are stalled in this MB
system.ruby.l1_cntrl34.cacheMemory.demand_accesses            0                       # Number of cache demand accesses
system.ruby.l1_cntrl34.cacheMemory.demand_hits            0                       # Number of cache demand hits
system.ruby.l1_cntrl34.cacheMemory.demand_misses            0                       # Number of cache demand misses
system.ruby.l1_cntrl34.forwardFromCache.avg_buf_msgs     0.393423                       # Average number of messages in buffer
system.ruby.l1_cntrl34.forwardFromCache.avg_stall_time   589.577533                       # Average number of cycles messages are stalled in this MB
system.ruby.l1_cntrl34.mandatoryQueue.avg_buf_msgs     0.590184                       # Average number of messages in buffer
system.ruby.l1_cntrl34.mandatoryQueue.avg_stall_time   322.082505                       # Average number of cycles messages are stalled in this MB
system.ruby.l1_cntrl34.requestFromCache.avg_buf_msgs     0.491828                       # Average number of messages in buffer
system.ruby.l1_cntrl34.requestFromCache.avg_stall_time   736.963720                       # Average number of cycles messages are stalled in this MB
system.ruby.l1_cntrl34.responseFromCache.avg_buf_msgs     1.246037                       # Average number of messages in buffer
system.ruby.l1_cntrl34.responseFromCache.avg_stall_time   764.519740                       # Average number of cycles messages are stalled in this MB
system.ruby.l1_cntrl35.cacheMemory.demand_accesses            0                       # Number of cache demand accesses
system.ruby.l1_cntrl35.cacheMemory.demand_hits            0                       # Number of cache demand hits
system.ruby.l1_cntrl35.cacheMemory.demand_misses            0                       # Number of cache demand misses
system.ruby.l1_cntrl35.forwardFromCache.avg_buf_msgs     0.393423                       # Average number of messages in buffer
system.ruby.l1_cntrl35.forwardFromCache.avg_stall_time   611.412523                       # Average number of cycles messages are stalled in this MB
system.ruby.l1_cntrl35.mandatoryQueue.avg_buf_msgs     0.540957                       # Average number of messages in buffer
system.ruby.l1_cntrl35.mandatoryQueue.avg_stall_time   316.623757                       # Average number of cycles messages are stalled in this MB
system.ruby.l1_cntrl35.requestFromCache.avg_buf_msgs     0.295067                       # Average number of messages in buffer
system.ruby.l1_cntrl35.requestFromCache.avg_stall_time   567.742542                       # Average number of cycles messages are stalled in this MB
system.ruby.l1_cntrl35.responseFromCache.avg_buf_msgs     1.295215                       # Average number of messages in buffer
system.ruby.l1_cntrl35.responseFromCache.avg_stall_time  1648.574579                       # Average number of cycles messages are stalled in this MB
system.ruby.l1_cntrl36.cacheMemory.demand_accesses            0                       # Number of cache demand accesses
system.ruby.l1_cntrl36.cacheMemory.demand_hits            0                       # Number of cache demand hits
system.ruby.l1_cntrl36.cacheMemory.demand_misses            0                       # Number of cache demand misses
[...]
system.ruby.network.ext_links64.network_links0.power_state.pwrStateResidencyTicks::UNDEFINED        20313                       # Cumulative time (in ticks) in various power states
system.ruby.network.ext_links64.network_links1.power_state.pwrStateResidencyTicks::UNDEFINED        20313                       # Cumulative time (in ticks) in various power states
system.ruby.network.ext_links64.ext_net_bridge0.power_state.pwrStateResidencyTicks::UNDEFINED        20313                       # Cumulative time (in ticks) in various power states
system.ruby.network.ext_links64.ext_net_bridge1.power_state.pwrStateResidencyTicks::UNDEFINED        20313                       # Cumulative time (in ticks) in various power states
system.ruby.network.ext_links64.ext_cred_bridge0.power_state.pwrStateResidencyTicks::UNDEFINED        20313                       # Cumulative time (in ticks) in various power states
system.ruby.network.ext_links64.ext_cred_bridge1.power_state.pwrStateResidencyTicks::UNDEFINED        20313                       # Cumulative time (in ticks) in various power states
system.ruby.network.ext_links64.int_cred_bridge0.power_state.pwrStateResidencyTicks::UNDEFINED        20313                       # Cumulative time (in ticks) in various power states
system.ruby.network.ext_links64.int_cred_bridge1.power_state.pwrStateResidencyTicks::UNDEFINED        20313                       # Cumulative time (in ticks) in various power states
system.ruby.network.ext_links65.int_net_bridge0.power_state.pwrStateResidencyTicks::UNDEFINED        20313                       # Cumulative time (in ticks) in various power states
system.ruby.network.ext_links65.int_net_bridge1.power_state.pwrStateResidencyTicks::UNDEFINED        20313                       # Cumulative time (in ticks) in various power states
system.ruby.network.ext_links65.credit_links0.power_state.pwrStateResidencyTicks::UNDEFINED        20313                       # Cumulative time (in ticks) in various power states
system.ruby.network.ext_links65.credit_links1.power_state.pwrStateResidencyTicks::UNDEFINED        20313                       # Cumulative time (in ticks) in various power states
system.ruby.network.ext_links65.network_links0.power_state.pwrStateResidencyTicks::UNDEFINED        20313                       # Cumulative time (in ticks) in various power states
system.ruby.network.ext_links65.network_links1.power_state.pwrStateResidencyTicks::UNDEFINED        20313                       # Cumulative time (in ticks) in various power states
system.ruby.network.ext_links65.ext_net_bridge0.power_state.pwrStateResidencyTicks::UNDEFINED        20313                       # Cumulative time (in ticks) in various power states
system.ruby.network.ext_links65.ext_net_bridge1.power_state.pwrStateResidencyTicks::UNDEFINED        20313                       # Cumulative time (in ticks) in various power states
system.ruby.network.ext_links65.ext_cred_bridge0.power_state.pwrStateResidencyTicks::UNDEFINED        20313                       # Cumulative time (in ticks) in various power states
system.ruby.network.ext_links65.ext_cred_bridge1.power_state.pwrStateResidencyTicks::UNDEFINED        20313                       # Cumulative time (in ticks) in various power states
system.ruby.network.ext_links65.int_cred_bridge0.power_state.pwrStateResidencyTicks::UNDEFINED        20313                       # Cumulative time (in ticks) in various power states
system.ruby.network.ext_links65.int_cred_bridge1.power_state.pwrStateResidencyTicks::UNDEFINED        20313                       # Cumulative time (in ticks) in various power states
system.ruby.network.ext_links68.int_net_bridge0.power_state.pwrStateResidencyTicks::UNDEFINED        20313                       # Cumulative time (in ticks) in various power states
system.ruby.network.ext_links68.int_net_bridge1.power_state.pwrStateResidencyTicks::UNDEFINED        20313                       # Cumulative time (in ticks) in various power states
system.ruby.network.ext_links68.credit_links0.power_state.pwrStateResidencyTicks::UNDEFINED        20313                       # Cumulative time (in ticks) in various power states
system.ruby.network.ext_links68.credit_links1.power_state.pwrStateResidencyTicks::UNDEFINED        20313                       # Cumulative time (in ticks) in various power states
system.ruby.network.ext_links68.network_links0.power_state.pwrStateResidencyTicks::UNDEFINED        20313                       # Cumulative time (in ticks) in various power states
system.ruby.network.ext_links68.network_links1.power_state.pwrStateResidencyTicks::UNDEFINED        20313                       # Cumulative time (in ticks) in various power states
system.ruby.network.ext_links68.ext_net_bridge0.power_state.pwrStateResidencyTicks::UNDEFINED        20313                       # Cumulative time (in ticks) in various power states
system.ruby.network.ext_links68.ext_net_bridge1.power_state.pwrStateResidencyTicks::UNDEFINED        20313                       # Cumulative time (in ticks) in various power states
system.ruby.network.ext_links68.ext_cred_bridge0.power_state.pwrStateResidencyTicks::UNDEFINED        20313                       # Cumulative time (in ticks) in various power states
system.ruby.network.ext_links68.ext_cred_bridge1.power_state.pwrStateResidencyTicks::UNDEFINED        20313                       # Cumulative time (in ticks) in various power states
system.ruby.network.ext_links68.int_cred_bridge0.power_state.pwrStateResidencyTicks::UNDEFINED        20313                       # Cumulative time (in ticks) in various power states
system.ruby.network.ext_links68.int_cred_bridge1.power_state.pwrStateResidencyTicks::UNDEFINED        20313                       # Cumulative time (in ticks) in various power states
system.ruby.network.ext_links69.int_net_bridge0.power_state.pwrStateResidencyTicks::UNDEFINED        20313                       # Cumulative time (in ticks) in various power states
system.ruby.network.ext_links69.int_net_bridge1.power_state.pwrStateResidencyTicks::UNDEFINED        20313                       # Cumulative time (in ticks) in various power states
system.ruby.network.ext_links69.credit_links0.power_state.pwrStateResidencyTicks::UNDEFINED        20313                       # Cumulative time (in ticks) in various power states
system.ruby.network.ext_links69.credit_links1.power_state.pwrStateResidencyTicks::UNDEFINED        20313                       # Cumulative time (in ticks) in various power states
system.ruby.network.ext_links69.network_links0.power_state.pwrStateResidencyTicks::UNDEFINED        20313                       # Cumulative time (in ticks) in various power states
system.ruby.network.ext_links69.network_links1.power_state.pwrStateResidencyTicks::UNDEFINED        20313                       # Cumulative time (in ticks) in various power states
system.ruby.network.ext_links69.ext_net_bridge0.power_state.pwrStateResidencyTicks::UNDEFINED        20313                       # Cumulative time (in ticks) in various power states
system.ruby.network.ext_links69.ext_net_bridge1.power_state.pwrStateResidencyTicks::UNDEFINED        20313                       # Cumulative time (in ticks) in various power states
system.ruby.network.ext_links69.ext_cred_bridge0.power_state.pwrStateResidencyTicks::UNDEFINED        20313                       # Cumulative time (in ticks) in various power states
system.ruby.network.ext_links69.ext_cred_bridge1.power_state.pwrStateResidencyTicks::UNDEFINED        20313                       # Cumulative time (in ticks) in various power states
system.ruby.network.ext_links69.int_cred_bridge0.power_state.pwrStateResidencyTicks::UNDEFINED        20313                       # Cumulative time (in ticks) in various power states
system.ruby.network.ext_links69.int_cred_bridge1.power_state.pwrStateResidencyTicks::UNDEFINED        20313                       # Cumulative time (in ticks) in various power states
system.ruby.network.netifs29.power_state.pwrStateResidencyTicks::UNDEFINED        20313                       # Cumulative time (in ticks) in various power states
system.ruby.network.netifs28.power_state.pwrStateResidencyTicks::UNDEFINED        20313                       # Cumulative time (in ticks) in various power states
system.ruby.network.int_links349.src_net_bridge.power_state.pwrStateResidencyTicks::UNDEFINED        20313                       # Cumulative time (in ticks) in various power states
system.ruby.network.int_links349.src_cred_bridge.power_state.pwrStateResidencyTicks::UNDEFINED        20313                       # Cumulative time (in ticks) in various power states
system.ruby.network.int_links349.credit_link.power_state.pwrStateResidencyTicks::UNDEFINED        20313                       # Cumulative time (in ticks) in various power states
system.ruby.network.int_links349.dst_net_bridge.power_state.pwrStateResidencyTicks::UNDEFINED        20313                       # Cumulative time (in ticks) in various power states
system.ruby.network.int_links349.dst_cred_bridge.power_state.pwrStateResidencyTicks::UNDEFINED        20313                       # Cumulative time (in ticks) in various power states
system.ruby.network.int_links349.network_link.power_state.pwrStateResidencyTicks::UNDEFINED        20313                       # Cumulative time (in ticks) in various power states
system.ruby.network.netifs21.power_state.pwrStateResidencyTicks::UNDEFINED        20313                       # Cumulative time (in ticks) in various power states
system.ruby.network.netifs20.power_state.pwrStateResidencyTicks::UNDEFINED        20313                       # Cumulative time (in ticks) in various power states
system.ruby.network.netifs23.power_state.pwrStateResidencyTicks::UNDEFINED        20313                       # Cumulative time (in ticks) in various power states
system.ruby.network.netifs22.power_state.pwrStateResidencyTicks::UNDEFINED        20313                       # Cumulative time (in ticks) in various power states
system.ruby.network.netifs25.power_state.pwrStateResidencyTicks::UNDEFINED        20313                       # Cumulative time (in ticks) in various power states
system.ruby.network.netifs24.power_state.pwrStateResidencyTicks::UNDEFINED        20313                       # Cumulative time (in ticks) in various power states
system.ruby.network.netifs27.power_state.pwrStateResidencyTicks::UNDEFINED        20313                       # Cumulative time (in ticks) in various power states
system.ruby.network.netifs26.power_state.pwrStateResidencyTicks::UNDEFINED        20313                       # Cumulative time (in ticks) in various power states
system.ruby.network.routers39.power_state.pwrStateResidencyTicks::UNDEFINED        20313                       # Cumulative time (in ticks) in various power states
system.ruby.dir_cntrl15.power_state.pwrStateResidencyTicks::UNDEFINED        20313                       # Cumulative time (in ticks) in various power states
system.ruby.dir_cntrl14.power_state.pwrStateResidencyTicks::UNDEFINED        20313                       # Cumulative time (in ticks) in various power states
system.ruby.dir_cntrl13.power_state.pwrStateResidencyTicks::UNDEFINED        20313                       # Cumulative time (in ticks) in various power states
system.ruby.dir_cntrl12.power_state.pwrStateResidencyTicks::UNDEFINED        20313                       # Cumulative time (in ticks) in various power states
system.ruby.dir_cntrl11.power_state.pwrStateResidencyTicks::UNDEFINED        20313                       # Cumulative time (in ticks) in various power states
system.ruby.dir_cntrl10.power_state.pwrStateResidencyTicks::UNDEFINED        20313                       # Cumulative time (in ticks) in various power states
system.ruby.l1_cntrl9.sequencer.power_state.pwrStateResidencyTicks::UNDEFINED        20313                       # Cumulative time (in ticks) in various power states
system.ruby.l1_cntrl9.power_state.pwrStateResidencyTicks::UNDEFINED        20313                       # Cumulative time (in ticks) in various power states
system.ruby.l1_cntrl59.sequencer.power_state.pwrStateResidencyTicks::UNDEFINED        20313                       # Cumulative time (in ticks) in various power states
system.ruby.l1_cntrl59.power_state.pwrStateResidencyTicks::UNDEFINED        20313                       # Cumulative time (in ticks) in various power states
system.ruby.l1_cntrl36.sequencer.power_state.pwrStateResidencyTicks::UNDEFINED        20313                       # Cumulative time (in ticks) in various power states
system.ruby.l1_cntrl36.power_state.pwrStateResidencyTicks::UNDEFINED        20313                       # Cumulative time (in ticks) in various power states
system.ruby.l1_cntrl27.sequencer.power_state.pwrStateResidencyTicks::UNDEFINED        20313                       # Cumulative time (in ticks) in various power states
system.ruby.l1_cntrl27.power_state.pwrStateResidencyTicks::UNDEFINED        20313                       # Cumulative time (in ticks) in various power states
system.ruby.l1_cntrl26.sequencer.power_state.pwrStateResidencyTicks::UNDEFINED        20313                       # Cumulative time (in ticks) in various power states
system.ruby.l1_cntrl26.power_state.pwrStateResidencyTicks::UNDEFINED        20313                       # Cumulative time (in ticks) in various power states
system.ruby.l1_cntrl25.sequencer.power_state.pwrStateResidencyTicks::UNDEFINED        20313                       # Cumulative time (in ticks) in various power states
system.ruby.l1_cntrl25.power_state.pwrStateResidencyTicks::UNDEFINED        20313                       # Cumulative time (in ticks) in various power states
system.ruby.l1_cntrl24.sequencer.power_state.pwrStateResidencyTicks::UNDEFINED        20313                       # Cumulative time (in ticks) in various power states
system.ruby.l1_cntrl24.power_state.pwrStateResidencyTicks::UNDEFINED        20313                       # Cumulative time (in ticks) in various power states
system.ruby.l1_cntrl23.sequencer.power_state.pwrStateResidencyTicks::UNDEFINED        20313                       # Cumulative time (in ticks) in various power states
system.ruby.l1_cntrl23.power_state.pwrStateResidencyTicks::UNDEFINED        20313                       # Cumulative time (in ticks) in various power states
system.ruby.l1_cntrl22.sequencer.power_state.pwrStateResidencyTicks::UNDEFINED        20313                       # Cumulative time (in ticks) in various power states
system.ruby.l1_cntrl22.power_state.pwrStateResidencyTicks::UNDEFINED        20313                       # Cumulative time (in ticks) in various power states
system.ruby.dir_cntrl9.power_state.pwrStateResidencyTicks::UNDEFINED        20313                       # Cumulative time (in ticks) in various power states
system.ruby.dir_cntrl8.power_state.pwrStateResidencyTicks::UNDEFINED        20313                       # Cumulative time (in ticks) in various power states
system.ruby.dir_cntrl7.power_state.pwrStateResidencyTicks::UNDEFINED        20313                       # Cumulative time (in ticks) in various power states
system.ruby.dir_cntrl6.power_state.pwrStateResidencyTicks::UNDEFINED        20313                       # Cumulative time (in ticks) in various power states
system.ruby.dir_cntrl5.power_state.pwrStateResidencyTicks::UNDEFINED        20313                       # Cumulative time (in ticks) in various power states
system.ruby.dir_cntrl4.power_state.pwrStateResidencyTicks::UNDEFINED        20313                       # Cumulative time (in ticks) in various power states
system.ruby.dir_cntrl3.power_state.pwrStateResidencyTicks::UNDEFINED        20313                       # Cumulative time (in ticks) in various power states
system.ruby.dir_cntrl2.power_state.pwrStateResidencyTicks::UNDEFINED        20313                       # Cumulative time (in ticks) in various power states
system.ruby.dir_cntrl1.power_state.pwrStateResidencyTicks::UNDEFINED        20313                       # Cumulative time (in ticks) in various power states
system.ruby.dir_cntrl0.power_state.pwrStateResidencyTicks::UNDEFINED        20313                       # Cumulative time (in ticks) in various power states
system.cpu42.power_state.pwrStateResidencyTicks::UNDEFINED        20313                       # Cumulative time (in ticks) in various power states
system.cpu41.power_state.pwrStateResidencyTicks::UNDEFINED        20313                       # Cumulative time (in ticks) in various power states
system.cpu40.power_state.pwrStateResidencyTicks::UNDEFINED        20313                       # Cumulative time (in ticks) in various power states
system.cpu58.power_state.pwrStateResidencyTicks::UNDEFINED        20313                       # Cumulative time (in ticks) in various power states
system.cpu59.power_state.pwrStateResidencyTicks::UNDEFINED        20313                       # Cumulative time (in ticks) in various power states
system.cpu50.power_state.pwrStateResidencyTicks::UNDEFINED        20313                       # Cumulative time (in ticks) in various power states
system.cpu51.power_state.pwrStateResidencyTicks::UNDEFINED        20313                       # Cumulative time (in ticks) in various power states
system.cpu52.power_state.pwrStateResidencyTicks::UNDEFINED        20313                       # Cumulative time (in ticks) in various power states
system.cpu53.power_state.pwrStateResidencyTicks::UNDEFINED        20313                       # Cumulative time (in ticks) in various power states
system.cpu54.power_state.pwrStateResidencyTicks::UNDEFINED        20313                       # Cumulative time (in ticks) in various power states
system.cpu55.power_state.pwrStateResidencyTicks::UNDEFINED        20313                       # Cumulative time (in ticks) in various power states
system.cpu56.power_state.pwrStateResidencyTicks::UNDEFINED        20313                       # Cumulative time (in ticks) in various power states
system.cpu57.power_state.pwrStateResidencyTicks::UNDEFINED        20313                       # Cumulative time (in ticks) in various power states
system.clk_domain.clock                           333                       # Clock period in ticks
system.cpu29.power_state.pwrStateResidencyTicks::UNDEFINED        20313                       # Cumulative time (in ticks) in various power states
system.cpu28.power_state.pwrStateResidencyTicks::UNDEFINED        20313                       # Cumulative time (in ticks) in various power states
system.cpu25.power_state.pwrStateResidencyTicks::UNDEFINED        20313                       # Cumulative time (in ticks) in various power states
system.cpu24.power_state.pwrStateResidencyTicks::UNDEFINED        20313                       # Cumulative time (in ticks) in various power states
system.cpu27.power_state.pwrStateResidencyTicks::UNDEFINED        20313                       # Cumulative time (in ticks) in various power states
system.cpu26.power_state.pwrStateResidencyTicks::UNDEFINED        20313                       # Cumulative time (in ticks) in various power states
system.cpu21.power_state.pwrStateResidencyTicks::UNDEFINED        20313                       # Cumulative time (in ticks) in various power states
system.cpu20.power_state.pwrStateResidencyTicks::UNDEFINED        20313                       # Cumulative time (in ticks) in various power states
system.cpu23.power_state.pwrStateResidencyTicks::UNDEFINED        20313                       # Cumulative time (in ticks) in various power states
system.cpu22.power_state.pwrStateResidencyTicks::UNDEFINED        20313                       # Cumulative time (in ticks) in various power states

---------- End Simulation Statistics   ----------
