
---------- Begin Simulation Statistics ----------
final_tick                                     100080                       # Number of ticks from beginning of simulation (restored from checkpoints and never reset)
host_mem_usage                                 905496                       # Number of bytes of host memory used
host_seconds                                     1.33                       # Real time elapsed on the host
host_tick_rate                                  75163                       # Simulator tick rate (ticks/s)
sim_freq                                 1000000000000                       # Frequency of simulated ticks
sim_seconds                                  0.000000                       # Number of seconds simulated
sim_ticks                                      100080                       # Number of ticks simulated
system.ruby.Directory_Controller.I.Receive_Forward |          11      1.30%      1.30% |          22      2.60%      3.90% |          14      1.65%      5.55% |          11      1.30%      6.85% |          12      1.42%      8.26% |          13      1.53%      9.80% |          15      1.77%     11.57% |          19      2.24%     13.81% |          18      2.13%     15.94% |          15      1.77%     17.71% |          17      2.01%     19.72% |           7      0.83%     20.54% |          10      1.18%     21.72% |           7      0.83%     22.55% |          18      2.13%     24.68% |          12      1.42%     26.09% |          19      2.24%     28.34% |           9      1.06%     29.40% |          16      1.89%     31.29% |          12      1.42%     32.70% |          18      2.13%     34.83% |          12      1.42%     36.25% |          15      1.77%     38.02% |          11      1.30%     39.32% |          11      1.30%     40.61% |          13      1.53%     42.15% |          17      2.01%     44.16% |          11      1.30%     45.45% |           9      1.06%     46.52% |           3      0.35%     46.87% |          15      1.77%     48.64% |          11      1.30%     49.94% |          19      2.24%     52.18% |          13      1.53%     53.72% |           9      1.06%     54.78% |           7      0.83%     55.61% |           5      0.59%     56.20% |          14      1.65%     57.85% |          10      1.18%     59.03% |          18      2.13%     61.16% |          12      1.42%     62.57% |          15      1.77%     64.34% |          14      1.65%     66.00% |           7      0.83%     66.82% |           9      1.06%     67.89% |          14      1.65%     69.54% |          14      1.65%     71.19% |          20      2.36%     73.55% |          19      2.24%     75.80% |          13      1.53%     77.33% |          13      1.53%     78.87% |          15      1.77%     80.64% |          12      1.42%     82.05% |          17      2.01%     84.06% |          13      1.53%     85.60% |          10      1.18%     86.78% |          10      1.18%     87.96% |          20      2.36%     90.32% |          10      1.18%     91.50% |           9      1.06%     92.56% |          13      1.53%     94.10% |          16      1.89%     95.99% |          17      2.01%     97.99% |          17      2.01%    100.00%
system.ruby.Directory_Controller.I.Receive_Forward::total          847                      
system.ruby.Directory_Controller.I.Receive_Request |          11      1.35%      1.35% |          11      1.35%      2.70% |          15      1.84%      4.55% |          10      1.23%      5.77% |          13      1.60%      7.37% |          11      1.35%      8.72% |          13      1.60%     10.32% |          20      2.46%     12.78% |          13      1.60%     14.37% |          13      1.60%     15.97% |           6      0.74%     16.71% |           9      1.11%     17.81% |          13      1.60%     19.41% |          15      1.84%     21.25% |          13      1.60%     22.85% |           5      0.61%     23.46% |           9      1.11%     24.57% |          18      2.21%     26.78% |          11      1.35%     28.13% |           9      1.11%     29.24% |          13      1.60%     30.84% |          10      1.23%     32.06% |          14      1.72%     33.78% |          14      1.72%     35.50% |          14      1.72%     37.22% |          19      2.33%     39.56% |          14      1.72%     41.28% |           4      0.49%     41.77% |          14      1.72%     43.49% |           9      1.11%     44.59% |          17      2.09%     46.68% |          11      1.35%     48.03% |          16      1.97%     50.00% |          18      2.21%     52.21% |          10      1.23%     53.44% |          11      1.35%     54.79% |           6      0.74%     55.53% |          11      1.35%     56.88% |          20      2.46%     59.34% |          13      1.60%     60.93% |          15      1.84%     62.78% |          17      2.09%     64.86% |          12      1.47%     66.34% |          10      1.23%     67.57% |           7      0.86%     68.43% |           8      0.98%     69.41% |          13      1.60%     71.01% |          15      1.84%     72.85% |          22      2.70%     75.55% |          18      2.21%     77.76% |          14      1.72%     79.48% |          14      1.72%     81.20% |          14      1.72%     82.92% |          10      1.23%     84.15% |           9      1.11%     85.26% |          20      2.46%     87.71% |          16      1.97%     89.68% |           7      0.86%     90.54% |          16      1.97%     92.51% |           8      0.98%     93.49% |          13      1.60%     95.09% |          12      1.47%     96.56% |          13      1.60%     98.16% |          15      1.84%    100.00%
system.ruby.Directory_Controller.I.Receive_Request::total          814                      
system.ruby.Directory_Controller.I.Receive_Response |           6      1.86%      1.86% |           4      1.24%      3.11% |           2      0.62%      3.73% |           8      2.48%      6.21% |           7      2.17%      8.39% |           8      2.48%     10.87% |           6      1.86%     12.73% |           7      2.17%     14.91% |          11      3.42%     18.32% |           8      2.48%     20.81% |           7      2.17%     22.98% |           3      0.93%     23.91% |           6      1.86%     25.78% |           4      1.24%     27.02% |           6      1.86%     28.88% |           5      1.55%     30.43% |           4      1.24%     31.68% |           8      2.48%     34.16% |           5      1.55%     35.71% |           2      0.62%     36.34% |           2      0.62%     36.96% |           5      1.55%     38.51% |           6      1.86%     40.37% |           4      1.24%     41.61% |           5      1.55%     43.17% |          10      3.11%     46.27% |           5      1.55%     47.83% |           3      0.93%     48.76% |           3      0.93%     49.69% |           2      0.62%     50.31% |           6      1.86%     52.17% |           6      1.86%     54.04% |           9      2.80%     56.83% |           4      1.24%     58.07% |           1      0.31%     58.39% |           2      0.62%     59.01% |           0      0.00%     59.01% |           3      0.93%     59.94% |           6      1.86%     61.80% |           5      1.55%     63.35% |           5      1.55%     64.91% |           5      1.55%     66.46% |          11      3.42%     69.88% |           1      0.31%     70.19% |           0      0.00%     70.19% |           5      1.55%     71.74% |          10      3.11%     74.84% |           5      1.55%     76.40% |           4      1.24%     77.64% |           7      2.17%     79.81% |           4      1.24%     81.06% |           5      1.55%     82.61% |           1      0.31%     82.92% |           6      1.86%     84.78% |           7      2.17%     86.96% |           4      1.24%     88.20% |           4      1.24%     89.44% |           6      1.86%     91.30% |           7      2.17%     93.48% |           4      1.24%     94.72% |           0      0.00%     94.72% |           3      0.93%     95.65% |           7      2.17%     97.83% |           7      2.17%    100.00%
system.ruby.Directory_Controller.I.Receive_Response::total          322                      
system.ruby.Directory_Controller.Receive_Forward |          11      1.30%      1.30% |          22      2.60%      3.90% |          14      1.65%      5.55% |          11      1.30%      6.85% |          12      1.42%      8.26% |          13      1.53%      9.80% |          15      1.77%     11.57% |          19      2.24%     13.81% |          18      2.13%     15.94% |          15      1.77%     17.71% |          17      2.01%     19.72% |           7      0.83%     20.54% |          10      1.18%     21.72% |           7      0.83%     22.55% |          18      2.13%     24.68% |          12      1.42%     26.09% |          19      2.24%     28.34% |           9      1.06%     29.40% |          16      1.89%     31.29% |          12      1.42%     32.70% |          18      2.13%     34.83% |          12      1.42%     36.25% |          15      1.77%     38.02% |          11      1.30%     39.32% |          11      1.30%     40.61% |          13      1.53%     42.15% |          17      2.01%     44.16% |          11      1.30%     45.45% |           9      1.06%     46.52% |           3      0.35%     46.87% |          15      1.77%     48.64% |          11      1.30%     49.94% |          19      2.24%     52.18% |          13      1.53%     53.72% |           9      1.06%     54.78% |           7      0.83%     55.61% |           5      0.59%     56.20% |          14      1.65%     57.85% |          10      1.18%     59.03% |          18      2.13%     61.16% |          12      1.42%     62.57% |          15      1.77%     64.34% |          14      1.65%     66.00% |           7      0.83%     66.82% |           9      1.06%     67.89% |          14      1.65%     69.54% |          14      1.65%     71.19% |          20      2.36%     73.55% |          19      2.24%     75.80% |          13      1.53%     77.33% |          13      1.53%     78.87% |          15      1.77%     80.64% |          12      1.42%     82.05% |          17      2.01%     84.06% |          13      1.53%     85.60% |          10      1.18%     86.78% |          10      1.18%     87.96% |          20      2.36%     90.32% |          10      1.18%     91.50% |           9      1.06%     92.56% |          13      1.53%     94.10% |          16      1.89%     95.99% |          17      2.01%     97.99% |          17      2.01%    100.00%
system.ruby.Directory_Controller.Receive_Forward::total          847                      
system.ruby.Directory_Controller.Receive_Request |          11      1.35%      1.35% |          11      1.35%      2.70% |          15      1.84%      4.55% |          10      1.23%      5.77% |          13      1.60%      7.37% |          11      1.35%      8.72% |          13      1.60%     10.32% |          20      2.46%     12.78% |          13      1.60%     14.37% |          13      1.60%     15.97% |           6      0.74%     16.71% |           9      1.11%     17.81% |          13      1.60%     19.41% |          15      1.84%     21.25% |          13      1.60%     22.85% |           5      0.61%     23.46% |           9      1.11%     24.57% |          18      2.21%     26.78% |          11      1.35%     28.13% |           9      1.11%     29.24% |          13      1.60%     30.84% |          10      1.23%     32.06% |          14      1.72%     33.78% |          14      1.72%     35.50% |          14      1.72%     37.22% |          19      2.33%     39.56% |          14      1.72%     41.28% |           4      0.49%     41.77% |          14      1.72%     43.49% |           9      1.11%     44.59% |          17      2.09%     46.68% |          11      1.35%     48.03% |          16      1.97%     50.00% |          18      2.21%     52.21% |          10      1.23%     53.44% |          11      1.35%     54.79% |           6      0.74%     55.53% |          11      1.35%     56.88% |          20      2.46%     59.34% |          13      1.60%     60.93% |          15      1.84%     62.78% |          17      2.09%     64.86% |          12      1.47%     66.34% |          10      1.23%     67.57% |           7      0.86%     68.43% |           8      0.98%     69.41% |          13      1.60%     71.01% |          15      1.84%     72.85% |          22      2.70%     75.55% |          18      2.21%     77.76% |          14      1.72%     79.48% |          14      1.72%     81.20% |          14      1.72%     82.92% |          10      1.23%     84.15% |           9      1.11%     85.26% |          20      2.46%     87.71% |          16      1.97%     89.68% |           7      0.86%     90.54% |          16      1.97%     92.51% |           8      0.98%     93.49% |          13      1.60%     95.09% |          12      1.47%     96.56% |          13      1.60%     98.16% |          15      1.84%    100.00%
system.ruby.Directory_Controller.Receive_Request::total          814                      
system.ruby.Directory_Controller.Receive_Response |           6      1.86%      1.86% |           4      1.24%      3.11% |           2      0.62%      3.73% |           8      2.48%      6.21% |           7      2.17%      8.39% |           8      2.48%     10.87% |           6      1.86%     12.73% |           7      2.17%     14.91% |          11      3.42%     18.32% |           8      2.48%     20.81% |           7      2.17%     22.98% |           3      0.93%     23.91% |           6      1.86%     25.78% |           4      1.24%     27.02% |           6      1.86%     28.88% |           5      1.55%     30.43% |           4      1.24%     31.68% |           8      2.48%     34.16% |           5      1.55%     35.71% |           2      0.62%     36.34% |           2      0.62%     36.96% |           5      1.55%     38.51% |           6      1.86%     40.37% |           4      1.24%     41.61% |           5      1.55%     43.17% |          10      3.11%     46.27% |           5      1.55%     47.83% |           3      0.93%     48.76% |           3      0.93%     49.69% |           2      0.62%     50.31% |           6      1.86%     52.17% |           6      1.86%     54.04% |           9      2.80%     56.83% |           4      1.24%     58.07% |           1      0.31%     58.39% |           2      0.62%     59.01% |           0      0.00%     59.01% |           3      0.93%     59.94% |           6      1.86%     61.80% |           5      1.55%     63.35% |           5      1.55%     64.91% |           5      1.55%     66.46% |          11      3.42%     69.88% |           1      0.31%     70.19% |           0      0.00%     70.19% |           5      1.55%     71.74% |          10      3.11%     74.84% |           5      1.55%     76.40% |           4      1.24%     77.64% |           7      2.17%     79.81% |           4      1.24%     81.06% |           5      1.55%     82.61% |           1      0.31%     82.92% |           6      1.86%     84.78% |           7      2.17%     86.96% |           4      1.24%     88.20% |           4      1.24%     89.44% |           6      1.86%     91.30% |           7      2.17%     93.48% |           4      1.24%     94.72% |           0      0.00%     94.72% |           3      0.93%     95.65% |           7      2.17%     97.83% |           7      2.17%    100.00%
system.ruby.Directory_Controller.Receive_Response::total          322                      
system.ruby.IFETCH.hit_latency_hist_seqr::bucket_size            1                      
system.ruby.IFETCH.hit_latency_hist_seqr::max_bucket            9                      
system.ruby.IFETCH.hit_latency_hist_seqr::samples         1865                      
system.ruby.IFETCH.hit_latency_hist_seqr::mean     0.004826                      
system.ruby.IFETCH.hit_latency_hist_seqr::stdev     0.069318                      
system.ruby.IFETCH.hit_latency_hist_seqr |        1856     99.52%     99.52% |           9      0.48%    100.00% |           0      0.00%    100.00% |           0      0.00%    100.00% |           0      0.00%    100.00% |           0      0.00%    100.00% |           0      0.00%    100.00% |           0      0.00%    100.00% |           0      0.00%    100.00% |           0      0.00%    100.00%
system.ruby.IFETCH.hit_latency_hist_seqr::total         1865                      
system.ruby.IFETCH.latency_hist_seqr::bucket_size            1                      
system.ruby.IFETCH.latency_hist_seqr::max_bucket            9                      
system.ruby.IFETCH.latency_hist_seqr::samples         1865                      
system.ruby.IFETCH.latency_hist_seqr::mean     0.004826                      
system.ruby.IFETCH.latency_hist_seqr::stdev     0.069318                      
system.ruby.IFETCH.latency_hist_seqr     |        1856     99.52%     99.52% |           9      0.48%    100.00% |           0      0.00%    100.00% |           0      0.00%    100.00% |           0      0.00%    100.00% |           0      0.00%    100.00% |           0      0.00%    100.00% |           0      0.00%    100.00% |           0      0.00%    100.00% |           0      0.00%    100.00%
system.ruby.IFETCH.latency_hist_seqr::total         1865                      
system.ruby.L1Cache_Controller.Forward   |          24      1.29%      1.29% |          33      1.77%      3.06% |          25      1.34%      4.40% |          39      2.09%      6.49% |          31      1.66%      8.15% |          25      1.34%      9.49% |          34      1.82%     11.31% |          25      1.34%     12.65% |          32      1.72%     14.37% |          31      1.66%     16.03% |          35      1.88%     17.91% |          26      1.39%     19.30% |          19      1.02%     20.32% |          36      1.93%     22.25% |          30      1.61%     23.86% |          26      1.39%     25.25% |          18      0.97%     26.22% |          31      1.66%     27.88% |          40      2.14%     30.03% |          26      1.39%     31.42% |          27      1.45%     32.87% |          33      1.77%     34.64% |          26      1.39%     36.03% |          30      1.61%     37.64% |          21      1.13%     38.77% |          29      1.55%     40.32% |          23      1.23%     41.55% |          26      1.39%     42.95% |          34      1.82%     44.77% |          42      2.25%     47.02% |          35      1.88%     48.90% |          31      1.66%     50.56% |          23      1.23%     51.80% |          31      1.66%     53.46% |          33      1.77%     55.23% |          27      1.45%     56.68% |          26      1.39%     58.07% |          23      1.23%     59.30% |          33      1.77%     61.07% |          29      1.55%     62.63% |          31      1.66%     64.29% |          31      1.66%     65.95% |          25      1.34%     67.29% |          31      1.66%     68.95% |          29      1.55%     70.51% |          31      1.66%     72.17% |          31      1.66%     73.83% |          27      1.45%     75.28% |          27      1.45%     76.73% |          25      1.34%     78.07% |          29      1.55%     79.62% |          19      1.02%     80.64% |          24      1.29%     81.93% |          36      1.93%     83.86% |          28      1.50%     85.36% |          28      1.50%     86.86% |          25      1.34%     88.20% |          30      1.61%     89.81% |          26      1.39%     91.21% |          33      1.77%     92.98% |          39      2.09%     95.07% |          20      1.07%     96.14% |          36      1.93%     98.07% |          36      1.93%    100.00%
system.ruby.L1Cache_Controller.Forward::total         1865                      
system.ruby.L1Cache_Controller.I.Forward |          24      1.29%      1.29% |          33      1.77%      3.06% |          25      1.34%      4.40% |          39      2.09%      6.49% |          31      1.66%      8.15% |          25      1.34%      9.49% |          34      1.82%     11.31% |          25      1.34%     12.65% |          32      1.72%     14.37% |          31      1.66%     16.03% |          35      1.88%     17.91% |          26      1.39%     19.30% |          19      1.02%     20.32% |          36      1.93%     22.25% |          30      1.61%     23.86% |          26      1.39%     25.25% |          18      0.97%     26.22% |          31      1.66%     27.88% |          40      2.14%     30.03% |          26      1.39%     31.42% |          27      1.45%     32.87% |          33      1.77%     34.64% |          26      1.39%     36.03% |          30      1.61%     37.64% |          21      1.13%     38.77% |          29      1.55%     40.32% |          23      1.23%     41.55% |          26      1.39%     42.95% |          34      1.82%     44.77% |          42      2.25%     47.02% |          35      1.88%     48.90% |          31      1.66%     50.56% |          23      1.23%     51.80% |          31      1.66%     53.46% |          33      1.77%     55.23% |          27      1.45%     56.68% |          26      1.39%     58.07% |          23      1.23%     59.30% |          33      1.77%     61.07% |          29      1.55%     62.63% |          31      1.66%     64.29% |          31      1.66%     65.95% |          25      1.34%     67.29% |          31      1.66%     68.95% |          29      1.55%     70.51% |          31      1.66%     72.17% |          31      1.66%     73.83% |          27      1.45%     75.28% |          27      1.45%     76.73% |          25      1.34%     78.07% |          29      1.55%     79.62% |          19      1.02%     80.64% |          24      1.29%     81.93% |          36      1.93%     83.86% |          28      1.50%     85.36% |          28      1.50%     86.86% |          25      1.34%     88.20% |          30      1.61%     89.81% |          26      1.39%     91.21% |          33      1.77%     92.98% |          39      2.09%     95.07% |          20      1.07%     96.14% |          36      1.93%     98.07% |          36      1.93%    100.00%
system.ruby.L1Cache_Controller.I.Forward::total         1865                      
system.ruby.L1Cache_Controller.I.Request |          30      1.58%      1.58% |          27      1.43%      3.01% |          26      1.37%      4.38% |          25      1.32%      5.70% |          32      1.69%      7.39% |          25      1.32%      8.71% |          30      1.58%     10.30% |          34      1.80%     12.09% |          30      1.58%     13.67% |          31      1.64%     15.31% |          30      1.58%     16.90% |          26      1.37%     18.27% |          29      1.53%     19.80% |          30      1.58%     21.38% |          29      1.53%     22.91% |          26      1.37%     24.29% |          45      2.38%     26.66% |          29      1.53%     28.19% |          21      1.11%     29.30% |          31      1.64%     30.94% |          30      1.58%     32.52% |          28      1.48%     34.00% |          38      2.01%     36.01% |          29      1.53%     37.54% |          25      1.32%     38.86% |          28      1.48%     40.34% |          27      1.43%     41.76% |          31      1.64%     43.40% |          32      1.69%     45.09% |          27      1.43%     46.52% |          25      1.32%     47.84% |          26      1.37%     49.21% |          29      1.53%     50.74% |          25      1.32%     52.06% |          31      1.64%     53.70% |          23      1.21%     54.91% |          22      1.16%     56.07% |          27      1.43%     57.50% |          29      1.53%     59.03% |          38      2.01%     61.03% |          31      1.64%     62.67% |          34      1.80%     64.47% |          27      1.43%     65.89% |          29      1.53%     67.42% |          22      1.16%     68.59% |          38      2.01%     70.59% |          28      1.48%     72.07% |          23      1.21%     73.28% |          34      1.80%     75.08% |          32      1.69%     76.77% |          43      2.27%     79.04% |          31      1.64%     80.68% |          27      1.43%     82.10% |          35      1.85%     83.95% |          37      1.95%     85.90% |          25      1.32%     87.22% |          36      1.90%     89.12% |          35      1.85%     90.97% |          23      1.21%     92.19% |          29      1.53%     93.72% |          23      1.21%     94.93% |          42      2.22%     97.15% |          26      1.37%     98.52% |          28      1.48%    100.00%
system.ruby.L1Cache_Controller.I.Request::total         1894                      
system.ruby.L1Cache_Controller.I.Response |          35      1.83%      1.83% |          25      1.31%      3.14% |          33      1.73%      4.87% |          17      0.89%      5.76% |          32      1.68%      7.44% |          24      1.26%      8.70% |          32      1.68%     10.37% |          34      1.78%     12.15% |          27      1.41%     13.57% |          28      1.47%     15.03% |          25      1.31%     16.34% |          28      1.47%     17.81% |          33      1.73%     19.54% |          34      1.78%     21.32% |          29      1.52%     22.84% |          25      1.31%     24.15% |          30      1.57%     25.72% |          29      1.52%     27.24% |          34      1.78%     29.02% |          29      1.52%     30.54% |          32      1.68%     32.22% |          37      1.94%     34.15% |          34      1.78%     35.94% |          27      1.41%     37.35% |          36      1.89%     39.24% |          25      1.31%     40.54% |          40      2.10%     42.64% |          31      1.62%     44.26% |          24      1.26%     45.52% |          30      1.57%     47.09% |          27      1.41%     48.51% |          23      1.20%     49.71% |          35      1.83%     51.55% |          21      1.10%     52.65% |          32      1.68%     54.32% |          36      1.89%     56.21% |          33      1.73%     57.94% |          42      2.20%     60.14% |          29      1.52%     61.66% |          28      1.47%     63.12% |          26      1.36%     64.48% |          30      1.57%     66.06% |          27      1.41%     67.47% |          23      1.20%     68.67% |          23      1.20%     69.88% |          26      1.36%     71.24% |          28      1.47%     72.71% |          34      1.78%     74.49% |          28      1.47%     75.96% |          36      1.89%     77.84% |          25      1.31%     79.15% |          36      1.89%     81.04% |          27      1.41%     82.45% |          28      1.47%     83.92% |          27      1.41%     85.33% |          25      1.31%     86.64% |          37      1.94%     88.58% |          31      1.62%     90.20% |          38      1.99%     92.19% |          31      1.62%     93.82% |          24      1.26%     95.08% |          31      1.62%     96.70% |          29      1.52%     98.22% |          34      1.78%    100.00%
system.ruby.L1Cache_Controller.I.Response::total         1909                      
system.ruby.L1Cache_Controller.Request   |          30      1.58%      1.58% |          27      1.43%      3.01% |          26      1.37%      4.38% |          25      1.32%      5.70% |          32      1.69%      7.39% |          25      1.32%      8.71% |          30      1.58%     10.30% |          34      1.80%     12.09% |          30      1.58%     13.67% |          31      1.64%     15.31% |          30      1.58%     16.90% |          26      1.37%     18.27% |          29      1.53%     19.80% |          30      1.58%     21.38% |          29      1.53%     22.91% |          26      1.37%     24.29% |          45      2.38%     26.66% |          29      1.53%     28.19% |          21      1.11%     29.30% |          31      1.64%     30.94% |          30      1.58%     32.52% |          28      1.48%     34.00% |          38      2.01%     36.01% |          29      1.53%     37.54% |          25      1.32%     38.86% |          28      1.48%     40.34% |          27      1.43%     41.76% |          31      1.64%     43.40% |          32      1.69%     45.09% |          27      1.43%     46.52% |          25      1.32%     47.84% |          26      1.37%     49.21% |          29      1.53%     50.74% |          25      1.32%     52.06% |          31      1.64%     53.70% |          23      1.21%     54.91% |          22      1.16%     56.07% |          27      1.43%     57.50% |          29      1.53%     59.03% |          38      2.01%     61.03% |          31      1.64%     62.67% |          34      1.80%     64.47% |          27      1.43%     65.89% |          29      1.53%     67.42% |          22      1.16%     68.59% |          38      2.01%     70.59% |          28      1.48%     72.07% |          23      1.21%     73.28% |          34      1.80%     75.08% |          32      1.69%     76.77% |          43      2.27%     79.04% |          31      1.64%     80.68% |          27      1.43%     82.10% |          35      1.85%     83.95% |          37      1.95%     85.90% |          25      1.32%     87.22% |          36      1.90%     89.12% |          35      1.85%     90.97% |          23      1.21%     92.19% |          29      1.53%     93.72% |          23      1.21%     94.93% |          42      2.22%     97.15% |          26      1.37%     98.52% |          28      1.48%    100.00%
system.ruby.L1Cache_Controller.Request::total         1894                      
system.ruby.L1Cache_Controller.Response  |          35      1.83%      1.83% |          25      1.31%      3.14% |          33      1.73%      4.87% |          17      0.89%      5.76% |          32      1.68%      7.44% |          24      1.26%      8.70% |          32      1.68%     10.37% |          34      1.78%     12.15% |          27      1.41%     13.57% |          28      1.47%     15.03% |          25      1.31%     16.34% |          28      1.47%     17.81% |          33      1.73%     19.54% |          34      1.78%     21.32% |          29      1.52%     22.84% |          25      1.31%     24.15% |          30      1.57%     25.72% |          29      1.52%     27.24% |          34      1.78%     29.02% |          29      1.52%     30.54% |          32      1.68%     32.22% |          37      1.94%     34.15% |          34      1.78%     35.94% |          27      1.41%     37.35% |          36      1.89%     39.24% |          25      1.31%     40.54% |          40      2.10%     42.64% |          31      1.62%     44.26% |          24      1.26%     45.52% |          30      1.57%     47.09% |          27      1.41%     48.51% |          23      1.20%     49.71% |          35      1.83%     51.55% |          21      1.10%     52.65% |          32      1.68%     54.32% |          36      1.89%     56.21% |          33      1.73%     57.94% |          42      2.20%     60.14% |          29      1.52%     61.66% |          28      1.47%     63.12% |          26      1.36%     64.48% |          30      1.57%     66.06% |          27      1.41%     67.47% |          23      1.20%     68.67% |          23      1.20%     69.88% |          26      1.36%     71.24% |          28      1.47%     72.71% |          34      1.78%     74.49% |          28      1.47%     75.96% |          36      1.89%     77.84% |          25      1.31%     79.15% |          36      1.89%     81.04% |          27      1.41%     82.45% |          28      1.47%     83.92% |          27      1.41%     85.33% |          25      1.31%     86.64% |          37      1.94%     88.58% |          31      1.62%     90.20% |          38      1.99%     92.19% |          31      1.62%     93.82% |          24      1.26%     95.08% |          31      1.62%     96.70% |          29      1.52%     98.22% |          34      1.78%    100.00%
system.ruby.L1Cache_Controller.Response::total         1909                      
system.ruby.LD.hit_latency_hist_seqr::bucket_size            1                      
system.ruby.LD.hit_latency_hist_seqr::max_bucket            9                      
system.ruby.LD.hit_latency_hist_seqr::samples         1894                      
system.ruby.LD.hit_latency_hist_seqr::mean     0.005280                      
system.ruby.LD.hit_latency_hist_seqr::stdev     0.072490                      
system.ruby.LD.hit_latency_hist_seqr     |        1884     99.47%     99.47% |          10      0.53%    100.00% |           0      0.00%    100.00% |           0      0.00%    100.00% |           0      0.00%    100.00% |           0      0.00%    100.00% |           0      0.00%    100.00% |           0      0.00%    100.00% |           0      0.00%    100.00% |           0      0.00%    100.00%
system.ruby.LD.hit_latency_hist_seqr::total         1894                      
system.ruby.LD.latency_hist_seqr::bucket_size            1                      
system.ruby.LD.latency_hist_seqr::max_bucket            9                      
system.ruby.LD.latency_hist_seqr::samples         1894                      
system.ruby.LD.latency_hist_seqr::mean       0.005280                      
system.ruby.LD.latency_hist_seqr::stdev      0.072490                      
system.ruby.LD.latency_hist_seqr         |        1884     99.47%     99.47% |          10      0.53%    100.00% |           0      0.00%    100.00% |           0      0.00%    100.00% |           0      0.00%    100.00% |           0      0.00%    100.00% |           0      0.00%    100.00% |           0      0.00%    100.00% |           0      0.00%    100.00% |           0      0.00%    100.00%
system.ruby.LD.latency_hist_seqr::total          1894                      
system.ruby.ST.hit_latency_hist_seqr::bucket_size            1                      
system.ruby.ST.hit_latency_hist_seqr::max_bucket            9                      
system.ruby.ST.hit_latency_hist_seqr::samples         1909                      
system.ruby.ST.hit_latency_hist_seqr::mean     0.006286                      
system.ruby.ST.hit_latency_hist_seqr::stdev     0.079056                      
system.ruby.ST.hit_latency_hist_seqr     |        1897     99.37%     99.37% |          12      0.63%    100.00% |           0      0.00%    100.00% |           0      0.00%    100.00% |           0      0.00%    100.00% |           0      0.00%    100.00% |           0      0.00%    100.00% |           0      0.00%    100.00% |           0      0.00%    100.00% |           0      0.00%    100.00%
system.ruby.ST.hit_latency_hist_seqr::total         1909                      
system.ruby.ST.latency_hist_seqr::bucket_size            1                      
system.ruby.ST.latency_hist_seqr::max_bucket            9                      
system.ruby.ST.latency_hist_seqr::samples         1909                      
system.ruby.ST.latency_hist_seqr::mean       0.006286                      
system.ruby.ST.latency_hist_seqr::stdev      0.079056                      
system.ruby.ST.latency_hist_seqr         |        1897     99.37%     99.37% |          12      0.63%    100.00% |           0      0.00%    100.00% |           0      0.00%    100.00% |           0      0.00%    100.00% |           0      0.00%    100.00% |           0      0.00%    100.00% |           0      0.00%    100.00% |           0      0.00%    100.00% |           0      0.00%    100.00%
system.ruby.ST.latency_hist_seqr::total          1909                      
system.ruby.dir_cntrl0.forwardToDir.avg_buf_msgs     0.061111                       # Average number of messages in buffer
system.ruby.dir_cntrl0.forwardToDir.avg_stall_time 10783.320031                       # Average number of cycles messages are stalled in this MB
system.ruby.dir_cntrl0.requestToDir.avg_buf_msgs     0.061111                       # Average number of messages in buffer
system.ruby.dir_cntrl0.requestToDir.avg_stall_time 11592.567500                       # Average number of cycles messages are stalled in this MB
system.ruby.dir_cntrl0.responseToDir.avg_buf_msgs     0.033333                       # Average number of messages in buffer
system.ruby.dir_cntrl0.responseToDir.avg_stall_time 22206.361447                       # Average number of cycles messages are stalled in this MB
system.ruby.dir_cntrl1.forwardToDir.avg_buf_msgs     0.122221                       # Average number of messages in buffer
system.ruby.dir_cntrl1.forwardToDir.avg_stall_time 15697.982035                       # Average number of cycles messages are stalled in this MB
system.ruby.dir_cntrl1.requestToDir.avg_buf_msgs     0.061111                       # Average number of messages in buffer
system.ruby.dir_cntrl1.requestToDir.avg_stall_time 13872.533608                       # Average number of cycles messages are stalled in this MB
system.ruby.dir_cntrl1.responseToDir.avg_buf_msgs     0.022222                       # Average number of messages in buffer
system.ruby.dir_cntrl1.responseToDir.avg_stall_time 21946.786263                       # Average number of cycles messages are stalled in this MB
system.ruby.dir_cntrl10.forwardToDir.avg_buf_msgs     0.094444                       # Average number of messages in buffer
system.ruby.dir_cntrl10.forwardToDir.avg_stall_time 17686.884384                       # Average number of cycles messages are stalled in this MB
system.ruby.dir_cntrl10.requestToDir.avg_buf_msgs     0.033333                       # Average number of messages in buffer
system.ruby.dir_cntrl10.requestToDir.avg_stall_time 10465.239876                       # Average number of cycles messages are stalled in this MB
system.ruby.dir_cntrl10.responseToDir.avg_buf_msgs     0.038889                       # Average number of messages in buffer
system.ruby.dir_cntrl10.responseToDir.avg_stall_time 18162.624074                       # Average number of cycles messages are stalled in this MB
system.ruby.dir_cntrl11.forwardToDir.avg_buf_msgs     0.038889                       # Average number of messages in buffer
system.ruby.dir_cntrl11.forwardToDir.avg_stall_time 20606.571877                       # Average number of cycles messages are stalled in this MB
system.ruby.dir_cntrl11.requestToDir.avg_buf_msgs     0.050000                       # Average number of messages in buffer
system.ruby.dir_cntrl11.requestToDir.avg_stall_time 14419.383699                       # Average number of cycles messages are stalled in this MB
system.ruby.dir_cntrl11.responseToDir.avg_buf_msgs     0.016667                       # Average number of messages in buffer
system.ruby.dir_cntrl11.responseToDir.avg_stall_time 26636.106074                       # Average number of cycles messages are stalled in this MB
system.ruby.dir_cntrl12.forwardToDir.avg_buf_msgs     0.055555                       # Average number of messages in buffer
system.ruby.dir_cntrl12.forwardToDir.avg_stall_time 21477.057623                       # Average number of cycles messages are stalled in this MB
system.ruby.dir_cntrl12.requestToDir.avg_buf_msgs     0.072222                       # Average number of messages in buffer
system.ruby.dir_cntrl12.requestToDir.avg_stall_time 16503.973981                       # Average number of cycles messages are stalled in this MB
system.ruby.dir_cntrl12.responseToDir.avg_buf_msgs     0.033333                       # Average number of messages in buffer
system.ruby.dir_cntrl12.responseToDir.avg_stall_time 25770.970274                       # Average number of cycles messages are stalled in this MB
system.ruby.dir_cntrl13.forwardToDir.avg_buf_msgs     0.038889                       # Average number of messages in buffer
system.ruby.dir_cntrl13.forwardToDir.avg_stall_time 10264.336328                       # Average number of cycles messages are stalled in this MB
system.ruby.dir_cntrl13.requestToDir.avg_buf_msgs     0.083333                       # Average number of messages in buffer
system.ruby.dir_cntrl13.requestToDir.avg_stall_time 18765.290275                       # Average number of cycles messages are stalled in this MB
system.ruby.dir_cntrl13.responseToDir.avg_buf_msgs     0.022222                       # Average number of messages in buffer
system.ruby.dir_cntrl13.responseToDir.avg_stall_time 23574.542221                       # Average number of cycles messages are stalled in this MB
system.ruby.dir_cntrl14.forwardToDir.avg_buf_msgs     0.099999                       # Average number of messages in buffer
system.ruby.dir_cntrl14.forwardToDir.avg_stall_time 11015.101048                       # Average number of cycles messages are stalled in this MB
system.ruby.dir_cntrl14.requestToDir.avg_buf_msgs     0.072222                       # Average number of messages in buffer
system.ruby.dir_cntrl14.requestToDir.avg_stall_time 15988.079136                       # Average number of cycles messages are stalled in this MB
system.ruby.dir_cntrl14.responseToDir.avg_buf_msgs     0.033333                       # Average number of messages in buffer
system.ruby.dir_cntrl14.responseToDir.avg_stall_time 20739.164996                       # Average number of cycles messages are stalled in this MB
system.ruby.dir_cntrl15.forwardToDir.avg_buf_msgs     0.066666                       # Average number of messages in buffer
system.ruby.dir_cntrl15.forwardToDir.avg_stall_time 20111.765710                       # Average number of cycles messages are stalled in this MB
system.ruby.dir_cntrl15.requestToDir.avg_buf_msgs     0.027778                       # Average number of messages in buffer
system.ruby.dir_cntrl15.requestToDir.avg_stall_time 16615.345090                       # Average number of cycles messages are stalled in this MB
system.ruby.dir_cntrl15.responseToDir.avg_buf_msgs     0.027778                       # Average number of messages in buffer
system.ruby.dir_cntrl15.responseToDir.avg_stall_time 26014.751172                       # Average number of cycles messages are stalled in this MB
system.ruby.dir_cntrl16.forwardToDir.avg_buf_msgs     0.105555                       # Average number of messages in buffer
system.ruby.dir_cntrl16.forwardToDir.avg_stall_time 12025.035401                       # Average number of cycles messages are stalled in this MB
system.ruby.dir_cntrl16.requestToDir.avg_buf_msgs     0.050000                       # Average number of messages in buffer
system.ruby.dir_cntrl16.requestToDir.avg_stall_time 14144.030895                       # Average number of cycles messages are stalled in this MB
system.ruby.dir_cntrl16.responseToDir.avg_buf_msgs     0.022222                       # Average number of messages in buffer
system.ruby.dir_cntrl16.responseToDir.avg_stall_time 15972.857066                       # Average number of cycles messages are stalled in this MB
system.ruby.dir_cntrl17.forwardToDir.avg_buf_msgs     0.050000                       # Average number of messages in buffer
system.ruby.dir_cntrl17.forwardToDir.avg_stall_time 11157.049630                       # Average number of cycles messages are stalled in this MB
system.ruby.dir_cntrl17.requestToDir.avg_buf_msgs     0.099999                       # Average number of messages in buffer
system.ruby.dir_cntrl17.requestToDir.avg_stall_time 11092.222500                       # Average number of cycles messages are stalled in this MB
system.ruby.dir_cntrl17.responseToDir.avg_buf_msgs     0.044444                       # Average number of messages in buffer
system.ruby.dir_cntrl17.responseToDir.avg_stall_time 32171.067435                       # Average number of cycles messages are stalled in this MB
system.ruby.dir_cntrl18.forwardToDir.avg_buf_msgs     0.088888                       # Average number of messages in buffer
system.ruby.dir_cntrl18.forwardToDir.avg_stall_time 14514.688302                       # Average number of cycles messages are stalled in this MB
system.ruby.dir_cntrl18.requestToDir.avg_buf_msgs     0.061111                       # Average number of messages in buffer
system.ruby.dir_cntrl18.requestToDir.avg_stall_time 15574.277715                       # Average number of cycles messages are stalled in this MB
system.ruby.dir_cntrl18.responseToDir.avg_buf_msgs     0.027778                       # Average number of messages in buffer
system.ruby.dir_cntrl18.responseToDir.avg_stall_time 28572.358949                       # Average number of cycles messages are stalled in this MB
system.ruby.dir_cntrl19.forwardToDir.avg_buf_msgs     0.066666                       # Average number of messages in buffer
system.ruby.dir_cntrl19.forwardToDir.avg_stall_time 17326.215765                       # Average number of cycles messages are stalled in this MB
system.ruby.dir_cntrl19.requestToDir.avg_buf_msgs     0.050000                       # Average number of messages in buffer
system.ruby.dir_cntrl19.requestToDir.avg_stall_time 13511.370550                       # Average number of cycles messages are stalled in this MB
system.ruby.dir_cntrl19.responseToDir.avg_buf_msgs     0.011111                       # Average number of messages in buffer
system.ruby.dir_cntrl19.responseToDir.avg_stall_time 18579.764351                       # Average number of cycles messages are stalled in this MB
system.ruby.dir_cntrl2.forwardToDir.avg_buf_msgs     0.077777                       # Average number of messages in buffer
system.ruby.dir_cntrl2.forwardToDir.avg_stall_time 17069.673884                       # Average number of cycles messages are stalled in this MB
system.ruby.dir_cntrl2.requestToDir.avg_buf_msgs     0.083333                       # Average number of messages in buffer
system.ruby.dir_cntrl2.requestToDir.avg_stall_time 17687.056604                       # Average number of cycles messages are stalled in this MB
system.ruby.dir_cntrl2.responseToDir.avg_buf_msgs     0.011111                       # Average number of messages in buffer
system.ruby.dir_cntrl2.responseToDir.avg_stall_time 16355.797684                       # Average number of cycles messages are stalled in this MB
system.ruby.dir_cntrl20.forwardToDir.avg_buf_msgs     0.099999                       # Average number of messages in buffer
system.ruby.dir_cntrl20.forwardToDir.avg_stall_time 16383.408519                       # Average number of cycles messages are stalled in this MB
system.ruby.dir_cntrl20.requestToDir.avg_buf_msgs     0.072222                       # Average number of messages in buffer
system.ruby.dir_cntrl20.requestToDir.avg_stall_time 18592.297559                       # Average number of cycles messages are stalled in this MB
system.ruby.dir_cntrl20.responseToDir.avg_buf_msgs     0.011111                       # Average number of messages in buffer
system.ruby.dir_cntrl20.responseToDir.avg_stall_time 29468.172221                       # Average number of cycles messages are stalled in this MB
system.ruby.dir_cntrl21.forwardToDir.avg_buf_msgs     0.066666                       # Average number of messages in buffer
system.ruby.dir_cntrl21.forwardToDir.avg_stall_time 12417.403703                       # Average number of cycles messages are stalled in this MB
system.ruby.dir_cntrl21.requestToDir.avg_buf_msgs     0.055565                       # Average number of messages in buffer
system.ruby.dir_cntrl21.requestToDir.avg_stall_time 13714.579630                       # Average number of cycles messages are stalled in this MB
system.ruby.dir_cntrl21.responseToDir.avg_buf_msgs     0.027778                       # Average number of messages in buffer
system.ruby.dir_cntrl21.responseToDir.avg_stall_time 23105.091356                       # Average number of cycles messages are stalled in this MB
system.ruby.dir_cntrl22.forwardToDir.avg_buf_msgs     0.083333                       # Average number of messages in buffer
system.ruby.dir_cntrl22.forwardToDir.avg_stall_time 12296.821575                       # Average number of cycles messages are stalled in this MB
system.ruby.dir_cntrl22.requestToDir.avg_buf_msgs     0.077777                       # Average number of messages in buffer
system.ruby.dir_cntrl22.requestToDir.avg_stall_time 13581.769846                       # Average number of cycles messages are stalled in this MB
system.ruby.dir_cntrl22.responseToDir.avg_buf_msgs     0.033333                       # Average number of messages in buffer
system.ruby.dir_cntrl22.responseToDir.avg_stall_time 23046.869716                       # Average number of cycles messages are stalled in this MB
system.ruby.dir_cntrl23.forwardToDir.avg_buf_msgs     0.061111                       # Average number of messages in buffer
system.ruby.dir_cntrl23.forwardToDir.avg_stall_time 15073.721605                       # Average number of cycles messages are stalled in this MB
system.ruby.dir_cntrl23.requestToDir.avg_buf_msgs     0.077777                       # Average number of messages in buffer
system.ruby.dir_cntrl23.requestToDir.avg_stall_time 10412.607068                       # Average number of cycles messages are stalled in this MB
system.ruby.dir_cntrl23.responseToDir.avg_buf_msgs     0.022222                       # Average number of messages in buffer
system.ruby.dir_cntrl23.responseToDir.avg_stall_time 13594.208611                       # Average number of cycles messages are stalled in this MB
system.ruby.dir_cntrl24.forwardToDir.avg_buf_msgs     0.061111                       # Average number of messages in buffer
system.ruby.dir_cntrl24.forwardToDir.avg_stall_time 15845.986111                       # Average number of cycles messages are stalled in this MB
system.ruby.dir_cntrl24.requestToDir.avg_buf_msgs     0.077777                       # Average number of messages in buffer
system.ruby.dir_cntrl24.requestToDir.avg_stall_time 13550.981265                       # Average number of cycles messages are stalled in this MB
system.ruby.dir_cntrl24.responseToDir.avg_buf_msgs     0.027778                       # Average number of messages in buffer
system.ruby.dir_cntrl24.responseToDir.avg_stall_time 23037.147590                       # Average number of cycles messages are stalled in this MB
system.ruby.dir_cntrl25.forwardToDir.avg_buf_msgs     0.072222                       # Average number of messages in buffer
system.ruby.dir_cntrl25.forwardToDir.avg_stall_time 15268.675213                       # Average number of cycles messages are stalled in this MB
system.ruby.dir_cntrl25.requestToDir.avg_buf_msgs     0.105555                       # Average number of messages in buffer
system.ruby.dir_cntrl25.requestToDir.avg_stall_time 16834.592900                       # Average number of cycles messages are stalled in this MB
system.ruby.dir_cntrl25.responseToDir.avg_buf_msgs     0.055555                       # Average number of messages in buffer
system.ruby.dir_cntrl25.responseToDir.avg_stall_time 22283.266234                       # Average number of cycles messages are stalled in this MB
system.ruby.dir_cntrl26.forwardToDir.avg_buf_msgs     0.094444                       # Average number of messages in buffer
system.ruby.dir_cntrl26.forwardToDir.avg_stall_time 21727.366233                       # Average number of cycles messages are stalled in this MB
system.ruby.dir_cntrl26.requestToDir.avg_buf_msgs     0.077777                       # Average number of messages in buffer
system.ruby.dir_cntrl26.requestToDir.avg_stall_time 11796.665461                       # Average number of cycles messages are stalled in this MB
system.ruby.dir_cntrl26.responseToDir.avg_buf_msgs     0.027778                       # Average number of messages in buffer
system.ruby.dir_cntrl26.responseToDir.avg_stall_time 28189.434998                       # Average number of cycles messages are stalled in this MB
system.ruby.dir_cntrl27.forwardToDir.avg_buf_msgs     0.061111                       # Average number of messages in buffer
system.ruby.dir_cntrl27.forwardToDir.avg_stall_time 23599.391973                       # Average number of cycles messages are stalled in this MB
system.ruby.dir_cntrl27.requestToDir.avg_buf_msgs     0.022222                       # Average number of messages in buffer
system.ruby.dir_cntrl27.requestToDir.avg_stall_time 18888.627931                       # Average number of cycles messages are stalled in this MB
system.ruby.dir_cntrl27.responseToDir.avg_buf_msgs     0.016667                       # Average number of messages in buffer
system.ruby.dir_cntrl27.responseToDir.avg_stall_time 33205.973761                       # Average number of cycles messages are stalled in this MB
system.ruby.dir_cntrl28.forwardToDir.avg_buf_msgs     0.050000                       # Average number of messages in buffer
system.ruby.dir_cntrl28.forwardToDir.avg_stall_time 17270.288546                       # Average number of cycles messages are stalled in this MB
system.ruby.dir_cntrl28.requestToDir.avg_buf_msgs     0.077777                       # Average number of messages in buffer
system.ruby.dir_cntrl28.requestToDir.avg_stall_time 26230.721236                       # Average number of cycles messages are stalled in this MB
system.ruby.dir_cntrl28.responseToDir.avg_buf_msgs     0.016667                       # Average number of messages in buffer
system.ruby.dir_cntrl28.responseToDir.avg_stall_time 22345.487835                       # Average number of cycles messages are stalled in this MB
system.ruby.dir_cntrl29.forwardToDir.avg_buf_msgs     0.016667                       # Average number of messages in buffer
system.ruby.dir_cntrl29.forwardToDir.avg_stall_time  8713.768488                       # Average number of cycles messages are stalled in this MB
system.ruby.dir_cntrl29.requestToDir.avg_buf_msgs     0.050009                       # Average number of messages in buffer
system.ruby.dir_cntrl29.requestToDir.avg_stall_time 20225.881236                       # Average number of cycles messages are stalled in this MB
system.ruby.dir_cntrl29.responseToDir.avg_buf_msgs     0.011111                       # Average number of messages in buffer
system.ruby.dir_cntrl29.responseToDir.avg_stall_time 20748.237128                       # Average number of cycles messages are stalled in this MB
system.ruby.dir_cntrl3.forwardToDir.avg_buf_msgs     0.061120                       # Average number of messages in buffer
system.ruby.dir_cntrl3.forwardToDir.avg_stall_time 16550.245741                       # Average number of cycles messages are stalled in this MB
system.ruby.dir_cntrl3.requestToDir.avg_buf_msgs     0.055555                       # Average number of messages in buffer
system.ruby.dir_cntrl3.requestToDir.avg_stall_time 12818.849692                       # Average number of cycles messages are stalled in this MB
system.ruby.dir_cntrl3.responseToDir.avg_buf_msgs     0.044444                       # Average number of messages in buffer
system.ruby.dir_cntrl3.responseToDir.avg_stall_time 30852.186169                       # Average number of cycles messages are stalled in this MB
system.ruby.dir_cntrl30.forwardToDir.avg_buf_msgs     0.083333                       # Average number of messages in buffer
system.ruby.dir_cntrl30.forwardToDir.avg_stall_time 15271.419630                       # Average number of cycles messages are stalled in this MB
system.ruby.dir_cntrl30.requestToDir.avg_buf_msgs     0.094444                       # Average number of messages in buffer
system.ruby.dir_cntrl30.requestToDir.avg_stall_time 11345.592190                       # Average number of cycles messages are stalled in this MB
system.ruby.dir_cntrl30.responseToDir.avg_buf_msgs     0.033333                       # Average number of messages in buffer
system.ruby.dir_cntrl30.responseToDir.avg_stall_time 31732.410707                       # Average number of cycles messages are stalled in this MB
system.ruby.dir_cntrl31.forwardToDir.avg_buf_msgs     0.061111                       # Average number of messages in buffer
system.ruby.dir_cntrl31.forwardToDir.avg_stall_time 15981.956975                       # Average number of cycles messages are stalled in this MB
system.ruby.dir_cntrl31.requestToDir.avg_buf_msgs     0.061111                       # Average number of messages in buffer
system.ruby.dir_cntrl31.requestToDir.avg_stall_time 10909.957654                       # Average number of cycles messages are stalled in this MB
system.ruby.dir_cntrl31.responseToDir.avg_buf_msgs     0.033333                       # Average number of messages in buffer
system.ruby.dir_cntrl31.responseToDir.avg_stall_time 23355.211079                       # Average number of cycles messages are stalled in this MB
system.ruby.dir_cntrl32.forwardToDir.avg_buf_msgs     0.105555                       # Average number of messages in buffer
system.ruby.dir_cntrl32.forwardToDir.avg_stall_time  9921.573086                       # Average number of cycles messages are stalled in this MB
system.ruby.dir_cntrl32.requestToDir.avg_buf_msgs     0.088888                       # Average number of messages in buffer
system.ruby.dir_cntrl32.requestToDir.avg_stall_time 11700.666420                       # Average number of cycles messages are stalled in this MB
system.ruby.dir_cntrl32.responseToDir.avg_buf_msgs     0.050000                       # Average number of messages in buffer
system.ruby.dir_cntrl32.responseToDir.avg_stall_time 25526.906046                       # Average number of cycles messages are stalled in this MB
system.ruby.dir_cntrl33.forwardToDir.avg_buf_msgs     0.072222                       # Average number of messages in buffer
system.ruby.dir_cntrl33.forwardToDir.avg_stall_time 13155.562994                       # Average number of cycles messages are stalled in this MB
system.ruby.dir_cntrl33.requestToDir.avg_buf_msgs     0.099999                       # Average number of messages in buffer
system.ruby.dir_cntrl33.requestToDir.avg_stall_time 13653.513574                       # Average number of cycles messages are stalled in this MB
system.ruby.dir_cntrl33.responseToDir.avg_buf_msgs     0.022222                       # Average number of messages in buffer
system.ruby.dir_cntrl33.responseToDir.avg_stall_time 17128.228855                       # Average number of cycles messages are stalled in this MB
system.ruby.dir_cntrl34.forwardToDir.avg_buf_msgs     0.050000                       # Average number of messages in buffer
system.ruby.dir_cntrl34.forwardToDir.avg_stall_time  9967.878179                       # Average number of cycles messages are stalled in this MB
system.ruby.dir_cntrl34.requestToDir.avg_buf_msgs     0.055555                       # Average number of messages in buffer
system.ruby.dir_cntrl34.requestToDir.avg_stall_time 10496.022901                       # Average number of cycles messages are stalled in this MB
system.ruby.dir_cntrl34.responseToDir.avg_buf_msgs     0.005556                       # Average number of messages in buffer
system.ruby.dir_cntrl34.responseToDir.avg_stall_time 16476.202036                       # Average number of cycles messages are stalled in this MB
system.ruby.dir_cntrl35.forwardToDir.avg_buf_msgs     0.038889                       # Average number of messages in buffer
system.ruby.dir_cntrl35.forwardToDir.avg_stall_time 26184.993915                       # Average number of cycles messages are stalled in this MB
system.ruby.dir_cntrl35.requestToDir.avg_buf_msgs     0.061111                       # Average number of messages in buffer
system.ruby.dir_cntrl35.requestToDir.avg_stall_time 23932.733086                       # Average number of cycles messages are stalled in this MB
system.ruby.dir_cntrl35.responseToDir.avg_buf_msgs     0.011111                       # Average number of messages in buffer
system.ruby.dir_cntrl35.responseToDir.avg_stall_time 20816.536445                       # Average number of cycles messages are stalled in this MB
system.ruby.dir_cntrl36.forwardToDir.avg_buf_msgs     0.027778                       # Average number of messages in buffer
system.ruby.dir_cntrl36.forwardToDir.avg_stall_time 19459.916667                       # Average number of cycles messages are stalled in this MB
system.ruby.dir_cntrl36.requestToDir.avg_buf_msgs     0.033333                       # Average number of messages in buffer
system.ruby.dir_cntrl36.requestToDir.avg_stall_time 16192.193763                       # Average number of cycles messages are stalled in this MB
system.ruby.dir_cntrl37.forwardToDir.avg_buf_msgs     0.077777                       # Average number of messages in buffer
system.ruby.dir_cntrl37.forwardToDir.avg_stall_time 13442.821235                       # Average number of cycles messages are stalled in this MB
system.ruby.dir_cntrl37.requestToDir.avg_buf_msgs     0.061111                       # Average number of messages in buffer
system.ruby.dir_cntrl37.requestToDir.avg_stall_time  8509.942746                       # Average number of cycles messages are stalled in this MB
system.ruby.dir_cntrl37.responseToDir.avg_buf_msgs     0.016667                       # Average number of messages in buffer
system.ruby.dir_cntrl37.responseToDir.avg_stall_time 19565.121172                       # Average number of cycles messages are stalled in this MB
system.ruby.dir_cntrl38.forwardToDir.avg_buf_msgs     0.055555                       # Average number of messages in buffer
system.ruby.dir_cntrl38.forwardToDir.avg_stall_time 14882.406850                       # Average number of cycles messages are stalled in this MB
system.ruby.dir_cntrl38.requestToDir.avg_buf_msgs     0.111110                       # Average number of messages in buffer
system.ruby.dir_cntrl38.requestToDir.avg_stall_time 13977.204784                       # Average number of cycles messages are stalled in this MB
system.ruby.dir_cntrl38.responseToDir.avg_buf_msgs     0.033333                       # Average number of messages in buffer
system.ruby.dir_cntrl38.responseToDir.avg_stall_time 23027.831017                       # Average number of cycles messages are stalled in this MB
system.ruby.dir_cntrl39.forwardToDir.avg_buf_msgs     0.099999                       # Average number of messages in buffer
system.ruby.dir_cntrl39.forwardToDir.avg_stall_time 15083.115956                       # Average number of cycles messages are stalled in this MB
system.ruby.dir_cntrl39.requestToDir.avg_buf_msgs     0.072222                       # Average number of messages in buffer
system.ruby.dir_cntrl39.requestToDir.avg_stall_time 12763.344691                       # Average number of cycles messages are stalled in this MB
system.ruby.dir_cntrl39.responseToDir.avg_buf_msgs     0.027778                       # Average number of messages in buffer
system.ruby.dir_cntrl39.responseToDir.avg_stall_time 20714.298578                       # Average number of cycles messages are stalled in this MB
system.ruby.dir_cntrl4.forwardToDir.avg_buf_msgs     0.066666                       # Average number of messages in buffer
system.ruby.dir_cntrl4.forwardToDir.avg_stall_time 20050.021882                       # Average number of cycles messages are stalled in this MB
system.ruby.dir_cntrl4.requestToDir.avg_buf_msgs     0.072222                       # Average number of messages in buffer
system.ruby.dir_cntrl4.requestToDir.avg_stall_time 12862.427034                       # Average number of cycles messages are stalled in this MB
system.ruby.dir_cntrl4.responseToDir.avg_buf_msgs     0.038889                       # Average number of messages in buffer
system.ruby.dir_cntrl4.responseToDir.avg_stall_time 18153.557498                       # Average number of cycles messages are stalled in this MB
system.ruby.dir_cntrl40.forwardToDir.avg_buf_msgs     0.066666                       # Average number of messages in buffer
system.ruby.dir_cntrl40.forwardToDir.avg_stall_time 18900.850031                       # Average number of cycles messages are stalled in this MB
system.ruby.dir_cntrl40.requestToDir.avg_buf_msgs     0.083333                       # Average number of messages in buffer
system.ruby.dir_cntrl40.requestToDir.avg_stall_time 12846.610525                       # Average number of cycles messages are stalled in this MB
system.ruby.dir_cntrl40.responseToDir.avg_buf_msgs     0.027778                       # Average number of messages in buffer
system.ruby.dir_cntrl40.responseToDir.avg_stall_time 27154.662004                       # Average number of cycles messages are stalled in this MB
system.ruby.dir_cntrl41.forwardToDir.avg_buf_msgs     0.083333                       # Average number of messages in buffer
system.ruby.dir_cntrl41.forwardToDir.avg_stall_time 14576.404352                       # Average number of cycles messages are stalled in this MB
system.ruby.dir_cntrl41.requestToDir.avg_buf_msgs     0.094444                       # Average number of messages in buffer
system.ruby.dir_cntrl41.requestToDir.avg_stall_time 12775.616790                       # Average number of cycles messages are stalled in this MB
system.ruby.dir_cntrl41.responseToDir.avg_buf_msgs     0.027778                       # Average number of messages in buffer
system.ruby.dir_cntrl41.responseToDir.avg_stall_time 19169.902899                       # Average number of cycles messages are stalled in this MB
system.ruby.dir_cntrl42.forwardToDir.avg_buf_msgs     0.077777                       # Average number of messages in buffer
system.ruby.dir_cntrl42.forwardToDir.avg_stall_time 14175.208361                       # Average number of cycles messages are stalled in this MB
system.ruby.dir_cntrl42.requestToDir.avg_buf_msgs     0.066666                       # Average number of messages in buffer
system.ruby.dir_cntrl42.requestToDir.avg_stall_time 17192.711544                       # Average number of cycles messages are stalled in this MB
system.ruby.dir_cntrl42.responseToDir.avg_buf_msgs     0.061111                       # Average number of messages in buffer
system.ruby.dir_cntrl42.responseToDir.avg_stall_time 29070.020643                       # Average number of cycles messages are stalled in this MB
system.ruby.dir_cntrl43.forwardToDir.avg_buf_msgs     0.038889                       # Average number of messages in buffer
system.ruby.dir_cntrl43.forwardToDir.avg_stall_time  9767.213517                       # Average number of cycles messages are stalled in this MB
system.ruby.dir_cntrl43.requestToDir.avg_buf_msgs     0.055555                       # Average number of messages in buffer
system.ruby.dir_cntrl43.requestToDir.avg_stall_time 16473.218733                       # Average number of cycles messages are stalled in this MB
system.ruby.dir_cntrl43.responseToDir.avg_buf_msgs     0.005556                       # Average number of messages in buffer
system.ruby.dir_cntrl43.responseToDir.avg_stall_time  3509.031604                       # Average number of cycles messages are stalled in this MB
system.ruby.dir_cntrl44.forwardToDir.avg_buf_msgs     0.050009                       # Average number of messages in buffer
system.ruby.dir_cntrl44.forwardToDir.avg_stall_time 15256.153116                       # Average number of cycles messages are stalled in this MB
system.ruby.dir_cntrl44.requestToDir.avg_buf_msgs     0.038889                       # Average number of messages in buffer
system.ruby.dir_cntrl44.requestToDir.avg_stall_time 22753.161539                       # Average number of cycles messages are stalled in this MB
system.ruby.dir_cntrl45.forwardToDir.avg_buf_msgs     0.077777                       # Average number of messages in buffer
system.ruby.dir_cntrl45.forwardToDir.avg_stall_time 16794.493300                       # Average number of cycles messages are stalled in this MB
system.ruby.dir_cntrl45.requestToDir.avg_buf_msgs     0.044444                       # Average number of messages in buffer
system.ruby.dir_cntrl45.requestToDir.avg_stall_time 12115.145612                       # Average number of cycles messages are stalled in this MB
system.ruby.dir_cntrl45.responseToDir.avg_buf_msgs     0.027778                       # Average number of messages in buffer
system.ruby.dir_cntrl45.responseToDir.avg_stall_time 19317.962530                       # Average number of cycles messages are stalled in this MB
system.ruby.dir_cntrl46.forwardToDir.avg_buf_msgs     0.077777                       # Average number of messages in buffer
system.ruby.dir_cntrl46.forwardToDir.avg_stall_time 15336.296760                       # Average number of cycles messages are stalled in this MB
system.ruby.dir_cntrl46.requestToDir.avg_buf_msgs     0.072222                       # Average number of messages in buffer
system.ruby.dir_cntrl46.requestToDir.avg_stall_time 12222.733426                       # Average number of cycles messages are stalled in this MB
system.ruby.dir_cntrl46.responseToDir.avg_buf_msgs     0.055555                       # Average number of messages in buffer
system.ruby.dir_cntrl46.responseToDir.avg_stall_time 29242.685585                       # Average number of cycles messages are stalled in this MB
system.ruby.dir_cntrl47.forwardToDir.avg_buf_msgs     0.111110                       # Average number of messages in buffer
system.ruby.dir_cntrl47.forwardToDir.avg_stall_time 15274.452933                       # Average number of cycles messages are stalled in this MB
system.ruby.dir_cntrl47.requestToDir.avg_buf_msgs     0.083333                       # Average number of messages in buffer
system.ruby.dir_cntrl47.requestToDir.avg_stall_time 14614.203975                       # Average number of cycles messages are stalled in this MB
system.ruby.dir_cntrl47.responseToDir.avg_buf_msgs     0.027778                       # Average number of messages in buffer
system.ruby.dir_cntrl47.responseToDir.avg_stall_time 26552.229134                       # Average number of cycles messages are stalled in this MB
system.ruby.dir_cntrl48.forwardToDir.avg_buf_msgs     0.105555                       # Average number of messages in buffer
system.ruby.dir_cntrl48.forwardToDir.avg_stall_time 15006.144503                       # Average number of cycles messages are stalled in this MB
system.ruby.dir_cntrl48.requestToDir.avg_buf_msgs     0.122221                       # Average number of messages in buffer
system.ruby.dir_cntrl48.requestToDir.avg_stall_time 20288.236169                       # Average number of cycles messages are stalled in this MB
system.ruby.dir_cntrl48.responseToDir.avg_buf_msgs     0.022222                       # Average number of messages in buffer
system.ruby.dir_cntrl48.responseToDir.avg_stall_time 27423.414874                       # Average number of cycles messages are stalled in this MB
system.ruby.dir_cntrl49.forwardToDir.avg_buf_msgs     0.072222                       # Average number of messages in buffer
system.ruby.dir_cntrl49.forwardToDir.avg_stall_time 17924.982005                       # Average number of cycles messages are stalled in this MB
system.ruby.dir_cntrl49.requestToDir.avg_buf_msgs     0.099999                       # Average number of messages in buffer
system.ruby.dir_cntrl49.requestToDir.avg_stall_time 10687.509877                       # Average number of cycles messages are stalled in this MB
system.ruby.dir_cntrl49.responseToDir.avg_buf_msgs     0.038889                       # Average number of messages in buffer
system.ruby.dir_cntrl49.responseToDir.avg_stall_time 21400.058393                       # Average number of cycles messages are stalled in this MB
system.ruby.dir_cntrl5.forwardToDir.avg_buf_msgs     0.072222                       # Average number of messages in buffer
system.ruby.dir_cntrl5.forwardToDir.avg_stall_time 12241.255463                       # Average number of cycles messages are stalled in this MB
system.ruby.dir_cntrl5.requestToDir.avg_buf_msgs     0.061111                       # Average number of messages in buffer
system.ruby.dir_cntrl5.requestToDir.avg_stall_time 19623.853918                       # Average number of cycles messages are stalled in this MB
system.ruby.dir_cntrl5.responseToDir.avg_buf_msgs     0.044444                       # Average number of messages in buffer
system.ruby.dir_cntrl5.responseToDir.avg_stall_time 22833.182962                       # Average number of cycles messages are stalled in this MB
system.ruby.dir_cntrl50.forwardToDir.avg_buf_msgs     0.072231                       # Average number of messages in buffer
system.ruby.dir_cntrl50.forwardToDir.avg_stall_time 12791.527743                       # Average number of cycles messages are stalled in this MB
system.ruby.dir_cntrl50.requestToDir.avg_buf_msgs     0.077777                       # Average number of messages in buffer
system.ruby.dir_cntrl50.requestToDir.avg_stall_time  9084.459228                       # Average number of cycles messages are stalled in this MB
system.ruby.dir_cntrl50.responseToDir.avg_buf_msgs     0.022222                       # Average number of messages in buffer
system.ruby.dir_cntrl50.responseToDir.avg_stall_time 22657.129165                       # Average number of cycles messages are stalled in this MB
system.ruby.dir_cntrl51.forwardToDir.avg_buf_msgs     0.083333                       # Average number of messages in buffer
system.ruby.dir_cntrl51.forwardToDir.avg_stall_time 15126.226636                       # Average number of cycles messages are stalled in this MB
system.ruby.dir_cntrl51.requestToDir.avg_buf_msgs     0.077777                       # Average number of messages in buffer
system.ruby.dir_cntrl51.requestToDir.avg_stall_time 18561.420090                       # Average number of cycles messages are stalled in this MB
system.ruby.dir_cntrl51.responseToDir.avg_buf_msgs     0.027778                       # Average number of messages in buffer
system.ruby.dir_cntrl51.responseToDir.avg_stall_time 26790.560086                       # Average number of cycles messages are stalled in this MB
system.ruby.dir_cntrl52.forwardToDir.avg_buf_msgs     0.066666                       # Average number of messages in buffer
system.ruby.dir_cntrl52.forwardToDir.avg_stall_time 23865.072651                       # Average number of cycles messages are stalled in this MB
system.ruby.dir_cntrl52.requestToDir.avg_buf_msgs     0.077777                       # Average number of messages in buffer
system.ruby.dir_cntrl52.requestToDir.avg_stall_time 22122.706728                       # Average number of cycles messages are stalled in this MB
system.ruby.dir_cntrl52.responseToDir.avg_buf_msgs     0.005556                       # Average number of messages in buffer
system.ruby.dir_cntrl52.responseToDir.avg_stall_time 19040.093085                       # Average number of cycles messages are stalled in this MB
system.ruby.dir_cntrl53.forwardToDir.avg_buf_msgs     0.094444                       # Average number of messages in buffer
system.ruby.dir_cntrl53.forwardToDir.avg_stall_time  8040.380772                       # Average number of cycles messages are stalled in this MB
system.ruby.dir_cntrl53.requestToDir.avg_buf_msgs     0.055555                       # Average number of messages in buffer
system.ruby.dir_cntrl53.requestToDir.avg_stall_time 10597.966327                       # Average number of cycles messages are stalled in this MB
system.ruby.dir_cntrl53.responseToDir.avg_buf_msgs     0.033333                       # Average number of messages in buffer
system.ruby.dir_cntrl53.responseToDir.avg_stall_time 28578.764441                       # Average number of cycles messages are stalled in this MB
system.ruby.dir_cntrl54.forwardToDir.avg_buf_msgs     0.072222                       # Average number of messages in buffer
system.ruby.dir_cntrl54.forwardToDir.avg_stall_time  9096.747994                       # Average number of cycles messages are stalled in this MB
system.ruby.dir_cntrl54.requestToDir.avg_buf_msgs     0.050009                       # Average number of messages in buffer
system.ruby.dir_cntrl54.requestToDir.avg_stall_time 23954.555090                       # Average number of cycles messages are stalled in this MB
system.ruby.dir_cntrl54.responseToDir.avg_buf_msgs     0.038889                       # Average number of messages in buffer
system.ruby.dir_cntrl54.responseToDir.avg_stall_time 22576.752191                       # Average number of cycles messages are stalled in this MB
system.ruby.dir_cntrl55.forwardToDir.avg_buf_msgs     0.055555                       # Average number of messages in buffer
system.ruby.dir_cntrl55.forwardToDir.avg_stall_time 15944.957345                       # Average number of cycles messages are stalled in this MB
system.ruby.dir_cntrl55.requestToDir.avg_buf_msgs     0.111110                       # Average number of messages in buffer
system.ruby.dir_cntrl55.requestToDir.avg_stall_time 20526.250457                       # Average number of cycles messages are stalled in this MB
system.ruby.dir_cntrl55.responseToDir.avg_buf_msgs     0.022222                       # Average number of messages in buffer
system.ruby.dir_cntrl55.responseToDir.avg_stall_time 19336.884564                       # Average number of cycles messages are stalled in this MB
system.ruby.dir_cntrl56.forwardToDir.avg_buf_msgs     0.055555                       # Average number of messages in buffer
system.ruby.dir_cntrl56.forwardToDir.avg_stall_time 14959.683856                       # Average number of cycles messages are stalled in this MB
system.ruby.dir_cntrl56.requestToDir.avg_buf_msgs     0.088888                       # Average number of messages in buffer
system.ruby.dir_cntrl56.requestToDir.avg_stall_time 16550.256852                       # Average number of cycles messages are stalled in this MB
system.ruby.dir_cntrl56.responseToDir.avg_buf_msgs     0.022222                       # Average number of messages in buffer
system.ruby.dir_cntrl56.responseToDir.avg_stall_time 26036.706508                       # Average number of cycles messages are stalled in this MB
system.ruby.dir_cntrl57.forwardToDir.avg_buf_msgs     0.111110                       # Average number of messages in buffer
system.ruby.dir_cntrl57.forwardToDir.avg_stall_time 17631.318272                       # Average number of cycles messages are stalled in this MB
system.ruby.dir_cntrl57.requestToDir.avg_buf_msgs     0.038889                       # Average number of messages in buffer
system.ruby.dir_cntrl57.requestToDir.avg_stall_time 13736.468301                       # Average number of cycles messages are stalled in this MB
system.ruby.dir_cntrl57.responseToDir.avg_buf_msgs     0.033333                       # Average number of messages in buffer
system.ruby.dir_cntrl57.responseToDir.avg_stall_time 24068.776171                       # Average number of cycles messages are stalled in this MB
system.ruby.dir_cntrl58.forwardToDir.avg_buf_msgs     0.055555                       # Average number of messages in buffer
system.ruby.dir_cntrl58.forwardToDir.avg_stall_time 12071.368272                       # Average number of cycles messages are stalled in this MB
system.ruby.dir_cntrl58.requestToDir.avg_buf_msgs     0.088888                       # Average number of messages in buffer
system.ruby.dir_cntrl58.requestToDir.avg_stall_time 12139.295371                       # Average number of cycles messages are stalled in this MB
system.ruby.dir_cntrl58.responseToDir.avg_buf_msgs     0.038889                       # Average number of messages in buffer
system.ruby.dir_cntrl58.responseToDir.avg_stall_time 29767.963669                       # Average number of cycles messages are stalled in this MB
system.ruby.dir_cntrl59.forwardToDir.avg_buf_msgs     0.050000                       # Average number of messages in buffer
system.ruby.dir_cntrl59.forwardToDir.avg_stall_time 25977.784874                       # Average number of cycles messages are stalled in this MB
system.ruby.dir_cntrl59.requestToDir.avg_buf_msgs     0.044444                       # Average number of messages in buffer
[...]
system.mem_ctrls59.rdQLenPdf::2                     0                       # What read queue length does an incoming req see
system.mem_ctrls59.rdQLenPdf::3                     0                       # What read queue length does an incoming req see
system.mem_ctrls59.rdQLenPdf::4                     0                       # What read queue length does an incoming req see
system.mem_ctrls59.rdQLenPdf::5                     0                       # What read queue length does an incoming req see
system.mem_ctrls59.rdQLenPdf::6                     0                       # What read queue length does an incoming req see
system.mem_ctrls59.rdQLenPdf::7                     0                       # What read queue length does an incoming req see
system.mem_ctrls59.rdQLenPdf::8                     0                       # What read queue length does an incoming req see
system.mem_ctrls59.rdQLenPdf::9                     0                       # What read queue length does an incoming req see
system.mem_ctrls59.rdQLenPdf::10                    0                       # What read queue length does an incoming req see
system.mem_ctrls59.rdQLenPdf::11                    0                       # What read queue length does an incoming req see
system.mem_ctrls59.rdQLenPdf::12                    0                       # What read queue length does an incoming req see
system.mem_ctrls59.rdQLenPdf::13                    0                       # What read queue length does an incoming req see
system.mem_ctrls59.rdQLenPdf::14                    0                       # What read queue length does an incoming req see
system.mem_ctrls59.rdQLenPdf::15                    0                       # What read queue length does an incoming req see
system.mem_ctrls59.rdQLenPdf::16                    0                       # What read queue length does an incoming req see
system.mem_ctrls59.rdQLenPdf::17                    0                       # What read queue length does an incoming req see
system.mem_ctrls59.rdQLenPdf::18                    0                       # What read queue length does an incoming req see
system.mem_ctrls59.rdQLenPdf::19                    0                       # What read queue length does an incoming req see
system.mem_ctrls59.rdQLenPdf::20                    0                       # What read queue length does an incoming req see
system.mem_ctrls59.rdQLenPdf::21                    0                       # What read queue length does an incoming req see
system.mem_ctrls59.rdQLenPdf::22                    0                       # What read queue length does an incoming req see
system.mem_ctrls59.rdQLenPdf::23                    0                       # What read queue length does an incoming req see
system.mem_ctrls59.rdQLenPdf::24                    0                       # What read queue length does an incoming req see
system.mem_ctrls59.rdQLenPdf::25                    0                       # What read queue length does an incoming req see
system.mem_ctrls59.rdQLenPdf::26                    0                       # What read queue length does an incoming req see
system.mem_ctrls59.rdQLenPdf::27                    0                       # What read queue length does an incoming req see
system.mem_ctrls59.rdQLenPdf::28                    0                       # What read queue length does an incoming req see
system.mem_ctrls59.rdQLenPdf::29                    0                       # What read queue length does an incoming req see
system.mem_ctrls59.rdQLenPdf::30                    0                       # What read queue length does an incoming req see
system.mem_ctrls59.rdQLenPdf::31                    0                       # What read queue length does an incoming req see
system.mem_ctrls59.wrQLenPdf::0                     0                       # What write queue length does an incoming req see
system.mem_ctrls59.wrQLenPdf::1                     0                       # What write queue length does an incoming req see
system.mem_ctrls59.wrQLenPdf::2                     0                       # What write queue length does an incoming req see
system.mem_ctrls59.wrQLenPdf::3                     0                       # What write queue length does an incoming req see
system.mem_ctrls59.wrQLenPdf::4                     0                       # What write queue length does an incoming req see
system.mem_ctrls59.wrQLenPdf::5                     0                       # What write queue length does an incoming req see
system.mem_ctrls59.wrQLenPdf::6                     0                       # What write queue length does an incoming req see
system.mem_ctrls59.wrQLenPdf::7                     0                       # What write queue length does an incoming req see
system.mem_ctrls59.wrQLenPdf::8                     0                       # What write queue length does an incoming req see
system.mem_ctrls59.wrQLenPdf::9                     0                       # What write queue length does an incoming req see
system.mem_ctrls59.wrQLenPdf::10                    0                       # What write queue length does an incoming req see
system.mem_ctrls59.wrQLenPdf::11                    0                       # What write queue length does an incoming req see
system.mem_ctrls59.wrQLenPdf::12                    0                       # What write queue length does an incoming req see
system.mem_ctrls59.wrQLenPdf::13                    0                       # What write queue length does an incoming req see
system.mem_ctrls59.wrQLenPdf::14                    0                       # What write queue length does an incoming req see
system.mem_ctrls59.wrQLenPdf::15                    0                       # What write queue length does an incoming req see
system.mem_ctrls59.wrQLenPdf::16                    0                       # What write queue length does an incoming req see
system.mem_ctrls59.wrQLenPdf::17                    0                       # What write queue length does an incoming req see
system.mem_ctrls59.wrQLenPdf::18                    0                       # What write queue length does an incoming req see
system.mem_ctrls59.wrQLenPdf::19                    0                       # What write queue length does an incoming req see
system.mem_ctrls59.wrQLenPdf::20                    0                       # What write queue length does an incoming req see
system.mem_ctrls59.wrQLenPdf::21                    0                       # What write queue length does an incoming req see
system.mem_ctrls59.wrQLenPdf::22                    0                       # What write queue length does an incoming req see
system.mem_ctrls59.wrQLenPdf::23                    0                       # What write queue length does an incoming req see
system.mem_ctrls59.wrQLenPdf::24                    0                       # What write queue length does an incoming req see
system.mem_ctrls59.wrQLenPdf::25                    0                       # What write queue length does an incoming req see
system.mem_ctrls59.wrQLenPdf::26                    0                       # What write queue length does an incoming req see
system.mem_ctrls59.wrQLenPdf::27                    0                       # What write queue length does an incoming req see
system.mem_ctrls59.wrQLenPdf::28                    0                       # What write queue length does an incoming req see
system.mem_ctrls59.wrQLenPdf::29                    0                       # What write queue length does an incoming req see
system.mem_ctrls59.wrQLenPdf::30                    0                       # What write queue length does an incoming req see
system.mem_ctrls59.wrQLenPdf::31                    0                       # What write queue length does an incoming req see
system.mem_ctrls59.wrQLenPdf::32                    0                       # What write queue length does an incoming req see
system.mem_ctrls59.wrQLenPdf::33                    0                       # What write queue length does an incoming req see
system.mem_ctrls59.wrQLenPdf::34                    0                       # What write queue length does an incoming req see
system.mem_ctrls59.wrQLenPdf::35                    0                       # What write queue length does an incoming req see
system.mem_ctrls59.wrQLenPdf::36                    0                       # What write queue length does an incoming req see
system.mem_ctrls59.wrQLenPdf::37                    0                       # What write queue length does an incoming req see
system.mem_ctrls59.wrQLenPdf::38                    0                       # What write queue length does an incoming req see
system.mem_ctrls59.wrQLenPdf::39                    0                       # What write queue length does an incoming req see
system.mem_ctrls59.wrQLenPdf::40                    0                       # What write queue length does an incoming req see
system.mem_ctrls59.wrQLenPdf::41                    0                       # What write queue length does an incoming req see
system.mem_ctrls59.wrQLenPdf::42                    0                       # What write queue length does an incoming req see
system.mem_ctrls59.wrQLenPdf::43                    0                       # What write queue length does an incoming req see
system.mem_ctrls59.wrQLenPdf::44                    0                       # What write queue length does an incoming req see
system.mem_ctrls59.wrQLenPdf::45                    0                       # What write queue length does an incoming req see
system.mem_ctrls59.wrQLenPdf::46                    0                       # What write queue length does an incoming req see
system.mem_ctrls59.wrQLenPdf::47                    0                       # What write queue length does an incoming req see
system.mem_ctrls59.wrQLenPdf::48                    0                       # What write queue length does an incoming req see
system.mem_ctrls59.wrQLenPdf::49                    0                       # What write queue length does an incoming req see
system.mem_ctrls59.wrQLenPdf::50                    0                       # What write queue length does an incoming req see
system.mem_ctrls59.wrQLenPdf::51                    0                       # What write queue length does an incoming req see
system.mem_ctrls59.wrQLenPdf::52                    0                       # What write queue length does an incoming req see
system.mem_ctrls59.wrQLenPdf::53                    0                       # What write queue length does an incoming req see
system.mem_ctrls59.wrQLenPdf::54                    0                       # What write queue length does an incoming req see
system.mem_ctrls59.wrQLenPdf::55                    0                       # What write queue length does an incoming req see
system.mem_ctrls59.wrQLenPdf::56                    0                       # What write queue length does an incoming req see
system.mem_ctrls59.wrQLenPdf::57                    0                       # What write queue length does an incoming req see
system.mem_ctrls59.wrQLenPdf::58                    0                       # What write queue length does an incoming req see
system.mem_ctrls59.wrQLenPdf::59                    0                       # What write queue length does an incoming req see
system.mem_ctrls59.wrQLenPdf::60                    0                       # What write queue length does an incoming req see
system.mem_ctrls59.wrQLenPdf::61                    0                       # What write queue length does an incoming req see
system.mem_ctrls59.wrQLenPdf::62                    0                       # What write queue length does an incoming req see
system.mem_ctrls59.wrQLenPdf::63                    0                       # What write queue length does an incoming req see
system.mem_ctrls59.bytesReadDRAM                    0                       # Total number of bytes read from DRAM
system.mem_ctrls59.bytesReadWrQ                     0                       # Total number of bytes read from write queue
system.mem_ctrls59.bytesWritten                     0                       # Total number of bytes written to DRAM
system.mem_ctrls59.bytesReadSys                     0                       # Total read bytes from the system interface side
system.mem_ctrls59.bytesWrittenSys                  0                       # Total written bytes from the system interface side
system.mem_ctrls59.avgRdBW                       0.00                       # Average DRAM read bandwidth in MiByte/s
system.mem_ctrls59.avgWrBW                       0.00                       # Average achieved write bandwidth in MiByte/s
system.mem_ctrls59.avgRdBWSys                    0.00                       # Average system read bandwidth in MiByte/s
system.mem_ctrls59.avgWrBWSys                    0.00                       # Average system write bandwidth in MiByte/s
system.mem_ctrls59.peakBW                    12800.00                       # Theoretical peak bandwidth in MiByte/s
system.mem_ctrls59.busUtil                       0.00                       # Data bus utilization in percentage
system.mem_ctrls59.busUtilRead                   0.00                       # Data bus utilization in percentage for reads
system.mem_ctrls59.busUtilWrite                  0.00                       # Data bus utilization in percentage for writes
system.mem_ctrls59.totGap                           0                       # Total gap between requests
system.mem_ctrls59.avgGap                         nan                       # Average gap between requests
system.mem_ctrls59.pageHitRate                    nan                       # Row buffer hit rate, read and write combined
system.mem_ctrls59.rank1.actEnergy                  0                       # Energy for activate commands per rank (pJ)
system.mem_ctrls59.rank1.preEnergy                  0                       # Energy for precharge commands per rank (pJ)
system.mem_ctrls59.rank1.readEnergy                 0                       # Energy for read commands per rank (pJ)
system.mem_ctrls59.rank1.writeEnergy                0                       # Energy for write commands per rank (pJ)
system.mem_ctrls59.rank1.refreshEnergy              0                       # Energy for refresh commands per rank (pJ)
system.mem_ctrls59.rank1.actBackEnergy              0                       # Energy for active background per rank (pJ)
system.mem_ctrls59.rank1.preBackEnergy          38880                       # Energy for precharge background per rank (pJ)
system.mem_ctrls59.rank1.actPowerDownEnergy            0                       # Energy for active power-down per rank (pJ)
system.mem_ctrls59.rank1.prePowerDownEnergy            0                       # Energy for precharge power-down per rank (pJ)
system.mem_ctrls59.rank1.selfRefreshEnergy            0                       # Energy for self refresh per rank (pJ)
system.mem_ctrls59.rank1.totalEnergy            38880                       # Total energy per rank (pJ)
system.mem_ctrls59.rank1.averagePower      388.489209                       # Core power per rank (mW)
system.mem_ctrls59.rank1.totalIdleTime              0                       # Total Idle time Per DRAM Rank
system.mem_ctrls59.rank1.memoryStateTime::IDLE       100080                       # Time in different power states
system.mem_ctrls59.rank1.memoryStateTime::REF            0                       # Time in different power states
system.mem_ctrls59.rank1.memoryStateTime::SREF            0                       # Time in different power states
system.mem_ctrls59.rank1.memoryStateTime::PRE_PDN            0                       # Time in different power states
system.mem_ctrls59.rank1.memoryStateTime::ACT            0                       # Time in different power states
system.mem_ctrls59.rank1.memoryStateTime::ACT_PDN            0                       # Time in different power states
system.mem_ctrls59.rank0.actEnergy                  0                       # Energy for activate commands per rank (pJ)
system.mem_ctrls59.rank0.preEnergy                  0                       # Energy for precharge commands per rank (pJ)
system.mem_ctrls59.rank0.readEnergy                 0                       # Energy for read commands per rank (pJ)
system.mem_ctrls59.rank0.writeEnergy                0                       # Energy for write commands per rank (pJ)
system.mem_ctrls59.rank0.refreshEnergy              0                       # Energy for refresh commands per rank (pJ)
system.mem_ctrls59.rank0.actBackEnergy              0                       # Energy for active background per rank (pJ)
system.mem_ctrls59.rank0.preBackEnergy          38880                       # Energy for precharge background per rank (pJ)
system.mem_ctrls59.rank0.actPowerDownEnergy            0                       # Energy for active power-down per rank (pJ)
system.mem_ctrls59.rank0.prePowerDownEnergy            0                       # Energy for precharge power-down per rank (pJ)
system.mem_ctrls59.rank0.selfRefreshEnergy            0                       # Energy for self refresh per rank (pJ)
system.mem_ctrls59.rank0.totalEnergy            38880                       # Total energy per rank (pJ)
system.mem_ctrls59.rank0.averagePower      388.489209                       # Core power per rank (mW)
system.mem_ctrls59.rank0.totalIdleTime              0                       # Total Idle time Per DRAM Rank
system.mem_ctrls59.rank0.memoryStateTime::IDLE       100080                       # Time in different power states
system.mem_ctrls59.rank0.memoryStateTime::REF            0                       # Time in different power states
system.mem_ctrls59.rank0.memoryStateTime::SREF            0                       # Time in different power states
system.mem_ctrls59.rank0.memoryStateTime::PRE_PDN            0                       # Time in different power states
system.mem_ctrls59.rank0.memoryStateTime::ACT            0                       # Time in different power states
system.mem_ctrls59.rank0.memoryStateTime::ACT_PDN            0                       # Time in different power states
system.mem_ctrls59.power_state.pwrStateResidencyTicks::UNDEFINED       100080                       # Cumulative time (in ticks) in various power states
system.cpu29.power_state.pwrStateResidencyTicks::UNDEFINED       100080                       # Cumulative time (in ticks) in various power states
system.cpu28.power_state.pwrStateResidencyTicks::UNDEFINED       100080                       # Cumulative time (in ticks) in various power states
system.cpu25.power_state.pwrStateResidencyTicks::UNDEFINED       100080                       # Cumulative time (in ticks) in various power states
system.cpu24.power_state.pwrStateResidencyTicks::UNDEFINED       100080                       # Cumulative time (in ticks) in various power states
system.cpu27.power_state.pwrStateResidencyTicks::UNDEFINED       100080                       # Cumulative time (in ticks) in various power states
system.cpu26.power_state.pwrStateResidencyTicks::UNDEFINED       100080                       # Cumulative time (in ticks) in various power states
system.cpu21.power_state.pwrStateResidencyTicks::UNDEFINED       100080                       # Cumulative time (in ticks) in various power states
system.cpu20.power_state.pwrStateResidencyTicks::UNDEFINED       100080                       # Cumulative time (in ticks) in various power states
system.cpu23.power_state.pwrStateResidencyTicks::UNDEFINED       100080                       # Cumulative time (in ticks) in various power states
system.cpu22.power_state.pwrStateResidencyTicks::UNDEFINED       100080                       # Cumulative time (in ticks) in various power states

---------- End Simulation Statistics   ----------
