
---------- Begin Simulation Statistics ----------
final_tick                                      20000                       # Number of ticks from beginning of simulation (restored from checkpoints and never reset)
host_mem_usage                                 887280                       # Number of bytes of host memory used
host_seconds                                     5.21                       # Real time elapsed on the host
host_tick_rate                                   3839                       # Simulator tick rate (ticks/s)
sim_freq                                  10000000000                       # Frequency of simulated ticks
sim_seconds                                  0.000002                       # Number of seconds simulated
sim_ticks                                       20000                       # Number of ticks simulated
system.ruby.Directory_Controller.I.Receive_Request |          16      6.43%      6.43% |          16      6.43%     12.85% |          16      6.43%     19.28% |          16      6.43%     25.70% |          12      4.82%     30.52% |          16      6.43%     36.95% |          16      6.43%     43.37% |          16      6.43%     49.80% |          16      6.43%     56.22% |          15      6.02%     62.25% |          15      6.02%     68.27% |          16      6.43%     74.70% |          16      6.43%     81.12% |          16      6.43%     87.55% |          16      6.43%     93.98% |          15      6.02%    100.00%
system.ruby.Directory_Controller.I.Receive_Request::total          249                      
system.ruby.Directory_Controller.Receive_Request |          16      6.43%      6.43% |          16      6.43%     12.85% |          16      6.43%     19.28% |          16      6.43%     25.70% |          12      4.82%     30.52% |          16      6.43%     36.95% |          16      6.43%     43.37% |          16      6.43%     49.80% |          16      6.43%     56.22% |          15      6.02%     62.25% |          15      6.02%     68.27% |          16      6.43%     74.70% |          16      6.43%     81.12% |          16      6.43%     87.55% |          16      6.43%     93.98% |          15      6.02%    100.00%
system.ruby.Directory_Controller.Receive_Request::total          249                      
system.ruby.L1Cache_Controller.I.Request |        1207      1.58%      1.58% |        1215      1.59%      3.17% |        1217      1.59%      4.76% |        1209      1.58%      6.34% |        1227      1.60%      7.94% |        1228      1.61%      9.55% |        1239      1.62%     11.17% |        1196      1.56%     12.73% |        1178      1.54%     14.27% |        1198      1.57%     15.84% |        1161      1.52%     17.36% |        1239      1.62%     18.98% |        1210      1.58%     20.56% |        1175      1.54%     22.10% |        1204      1.57%     23.67% |        1219      1.59%     25.27% |        1197      1.57%     26.83% |        1187      1.55%     28.38% |        1201      1.57%     29.95% |        1180      1.54%     31.50% |        1227      1.60%     33.10% |        1220      1.60%     34.70% |        1232      1.61%     36.31% |        1216      1.59%     37.90% |        1205      1.58%     39.47% |        1163      1.52%     40.99% |        1199      1.57%     42.56% |        1217      1.59%     44.15% |        1192      1.56%     45.71% |        1208      1.58%     47.29% |        1191      1.56%     48.85% |        1177      1.54%     50.39% |        1249      1.63%     52.02% |        1176      1.54%     53.56% |        1180      1.54%     55.10% |        1198      1.57%     56.67% |        1170      1.53%     58.20% |        1204      1.57%     59.77% |        1190      1.56%     61.33% |        1177      1.54%     62.87% |        1151      1.51%     64.37% |        1192      1.56%     65.93% |        1188      1.55%     67.49% |        1189      1.55%     69.04% |        1158      1.51%     70.56% |        1213      1.59%     72.14% |        1155      1.51%     73.65% |        1213      1.59%     75.24% |        1232      1.61%     76.85% |        1169      1.53%     78.38% |        1168      1.53%     79.91% |        1130      1.48%     81.38% |        1193      1.56%     82.94% |        1167      1.53%     84.47% |        1193      1.56%     86.03% |        1194      1.56%     87.59% |        1208      1.58%     89.17% |        1155      1.51%     90.68% |        1205      1.58%     92.26% |        1175      1.54%     93.79% |        1191      1.56%     95.35% |        1178      1.54%     96.89% |        1184      1.55%     98.44% |        1194      1.56%    100.00%
system.ruby.L1Cache_Controller.I.Request::total        76473                      
system.ruby.L1Cache_Controller.Request   |        1207      1.58%      1.58% |        1215      1.59%      3.17% |        1217      1.59%      4.76% |        1209      1.58%      6.34% |        1227      1.60%      7.94% |        1228      1.61%      9.55% |        1239      1.62%     11.17% |        1196      1.56%     12.73% |        1178      1.54%     14.27% |        1198      1.57%     15.84% |        1161      1.52%     17.36% |        1239      1.62%     18.98% |        1210      1.58%     20.56% |        1175      1.54%     22.10% |        1204      1.57%     23.67% |        1219      1.59%     25.27% |        1197      1.57%     26.83% |        1187      1.55%     28.38% |        1201      1.57%     29.95% |        1180      1.54%     31.50% |        1227      1.60%     33.10% |        1220      1.60%     34.70% |        1232      1.61%     36.31% |        1216      1.59%     37.90% |        1205      1.58%     39.47% |        1163      1.52%     40.99% |        1199      1.57%     42.56% |        1217      1.59%     44.15% |        1192      1.56%     45.71% |        1208      1.58%     47.29% |        1191      1.56%     48.85% |        1177      1.54%     50.39% |        1249      1.63%     52.02% |        1176      1.54%     53.56% |        1180      1.54%     55.10% |        1198      1.57%     56.67% |        1170      1.53%     58.20% |        1204      1.57%     59.77% |        1190      1.56%     61.33% |        1177      1.54%     62.87% |        1151      1.51%     64.37% |        1192      1.56%     65.93% |        1188      1.55%     67.49% |        1189      1.55%     69.04% |        1158      1.51%     70.56% |        1213      1.59%     72.14% |        1155      1.51%     73.65% |        1213      1.59%     75.24% |        1232      1.61%     76.85% |        1169      1.53%     78.38% |        1168      1.53%     79.91% |        1130      1.48%     81.38% |        1193      1.56%     82.94% |        1167      1.53%     84.47% |        1193      1.56%     86.03% |        1194      1.56%     87.59% |        1208      1.58%     89.17% |        1155      1.51%     90.68% |        1205      1.58%     92.26% |        1175      1.54%     93.79% |        1191      1.56%     95.35% |        1178      1.54%     96.89% |        1184      1.55%     98.44% |        1194      1.56%    100.00%
system.ruby.L1Cache_Controller.Request::total        76473                      
system.ruby.LD.hit_latency_hist_seqr::bucket_size            1                      
system.ruby.LD.hit_latency_hist_seqr::max_bucket            9                      
system.ruby.LD.hit_latency_hist_seqr::samples        76473                      
system.ruby.LD.hit_latency_hist_seqr::mean     0.000602                      
system.ruby.LD.hit_latency_hist_seqr::stdev     0.024519                      
system.ruby.LD.hit_latency_hist_seqr     |       76427     99.94%     99.94% |          46      0.06%    100.00% |           0      0.00%    100.00% |           0      0.00%    100.00% |           0      0.00%    100.00% |           0      0.00%    100.00% |           0      0.00%    100.00% |           0      0.00%    100.00% |           0      0.00%    100.00% |           0      0.00%    100.00%
system.ruby.LD.hit_latency_hist_seqr::total        76473                      
system.ruby.LD.latency_hist_seqr::bucket_size            1                      
system.ruby.LD.latency_hist_seqr::max_bucket            9                      
system.ruby.LD.latency_hist_seqr::samples        76473                      
system.ruby.LD.latency_hist_seqr::mean       0.000602                      
system.ruby.LD.latency_hist_seqr::stdev      0.024519                      
system.ruby.LD.latency_hist_seqr         |       76427     99.94%     99.94% |          46      0.06%    100.00% |           0      0.00%    100.00% |           0      0.00%    100.00% |           0      0.00%    100.00% |           0      0.00%    100.00% |           0      0.00%    100.00% |           0      0.00%    100.00% |           0      0.00%    100.00% |           0      0.00%    100.00%
system.ruby.LD.latency_hist_seqr::total         76473                      
system.ruby.dir_cntrl0.requestToDir.avg_buf_msgs     0.004000                       # Average number of messages in buffer
system.ruby.dir_cntrl0.requestToDir.avg_stall_time  7928.308085                       # Average number of cycles messages are stalled in this MB
system.ruby.dir_cntrl1.requestToDir.avg_buf_msgs     0.004000                       # Average number of messages in buffer
system.ruby.dir_cntrl1.requestToDir.avg_stall_time  7202.143893                       # Average number of cycles messages are stalled in this MB
system.ruby.dir_cntrl10.requestToDir.avg_buf_msgs     0.003750                       # Average number of messages in buffer
system.ruby.dir_cntrl10.requestToDir.avg_stall_time  7548.534073                       # Average number of cycles messages are stalled in this MB
system.ruby.dir_cntrl11.requestToDir.avg_buf_msgs     0.004000                       # Average number of messages in buffer
system.ruby.dir_cntrl11.requestToDir.avg_stall_time  6763.574321                       # Average number of cycles messages are stalled in this MB
system.ruby.dir_cntrl12.requestToDir.avg_buf_msgs     0.004000                       # Average number of messages in buffer
system.ruby.dir_cntrl12.requestToDir.avg_stall_time  7901.176441                       # Average number of cycles messages are stalled in this MB
system.ruby.dir_cntrl13.requestToDir.avg_buf_msgs     0.004000                       # Average number of messages in buffer
system.ruby.dir_cntrl13.requestToDir.avg_stall_time  7479.613519                       # Average number of cycles messages are stalled in this MB
system.ruby.dir_cntrl14.requestToDir.avg_buf_msgs     0.004000                       # Average number of messages in buffer
system.ruby.dir_cntrl14.requestToDir.avg_stall_time  6768.619569                       # Average number of cycles messages are stalled in this MB
system.ruby.dir_cntrl15.requestToDir.avg_buf_msgs     0.003750                       # Average number of messages in buffer
system.ruby.dir_cntrl15.requestToDir.avg_stall_time  7346.173191                       # Average number of cycles messages are stalled in this MB
system.ruby.dir_cntrl2.requestToDir.avg_buf_msgs     0.004000                       # Average number of messages in buffer
system.ruby.dir_cntrl2.requestToDir.avg_stall_time  7561.276936                       # Average number of cycles messages are stalled in this MB
system.ruby.dir_cntrl3.requestToDir.avg_buf_msgs     0.004000                       # Average number of messages in buffer
system.ruby.dir_cntrl3.requestToDir.avg_stall_time  6624.862757                       # Average number of cycles messages are stalled in this MB
system.ruby.dir_cntrl4.requestToDir.avg_buf_msgs     0.003000                       # Average number of messages in buffer
system.ruby.dir_cntrl4.requestToDir.avg_stall_time  5849.220789                       # Average number of cycles messages are stalled in this MB
system.ruby.dir_cntrl5.requestToDir.avg_buf_msgs     0.004000                       # Average number of messages in buffer
system.ruby.dir_cntrl5.requestToDir.avg_stall_time  6770.635468                       # Average number of cycles messages are stalled in this MB
system.ruby.dir_cntrl6.requestToDir.avg_buf_msgs     0.004000                       # Average number of messages in buffer
system.ruby.dir_cntrl6.requestToDir.avg_stall_time  7881.689416                       # Average number of cycles messages are stalled in this MB
system.ruby.dir_cntrl7.requestToDir.avg_buf_msgs     0.004000                       # Average number of messages in buffer
system.ruby.dir_cntrl7.requestToDir.avg_stall_time  7692.471126                       # Average number of cycles messages are stalled in this MB
system.ruby.dir_cntrl8.requestToDir.avg_buf_msgs     0.004000                       # Average number of messages in buffer
system.ruby.dir_cntrl8.requestToDir.avg_stall_time  7487.696615                       # Average number of cycles messages are stalled in this MB
system.ruby.dir_cntrl9.requestToDir.avg_buf_msgs     0.003750                       # Average number of messages in buffer
system.ruby.dir_cntrl9.requestToDir.avg_stall_time  7443.682816                       # Average number of cycles messages are stalled in this MB
system.ruby.hit_latency_hist_seqr::bucket_size            1                      
system.ruby.hit_latency_hist_seqr::max_bucket            9                      
system.ruby.hit_latency_hist_seqr::samples        76473                      
system.ruby.hit_latency_hist_seqr::mean      0.000602                      
system.ruby.hit_latency_hist_seqr::stdev     0.024519                      
system.ruby.hit_latency_hist_seqr        |       76427     99.94%     99.94% |          46      0.06%    100.00% |           0      0.00%    100.00% |           0      0.00%    100.00% |           0      0.00%    100.00% |           0      0.00%    100.00% |           0      0.00%    100.00% |           0      0.00%    100.00% |           0      0.00%    100.00% |           0      0.00%    100.00%
system.ruby.hit_latency_hist_seqr::total        76473                      
system.ruby.l1_cntrl0.cacheMemory.demand_accesses            0                       # Number of cache demand accesses
system.ruby.l1_cntrl0.cacheMemory.demand_hits            0                       # Number of cache demand hits
system.ruby.l1_cntrl0.cacheMemory.demand_misses            0                       # Number of cache demand misses
system.ruby.l1_cntrl0.mandatoryQueue.avg_buf_msgs     0.301785                       # Average number of messages in buffer
system.ruby.l1_cntrl0.mandatoryQueue.avg_stall_time     4.993750                       # Average number of cycles messages are stalled in this MB
system.ruby.l1_cntrl0.requestFromCache.avg_buf_msgs   595.460127                       # Average number of messages in buffer
system.ruby.l1_cntrl0.requestFromCache.avg_stall_time  2198.030348                       # Average number of cycles messages are stalled in this MB
system.ruby.l1_cntrl1.cacheMemory.demand_accesses            0                       # Number of cache demand accesses
system.ruby.l1_cntrl1.cacheMemory.demand_hits            0                       # Number of cache demand hits
system.ruby.l1_cntrl1.cacheMemory.demand_misses            0                       # Number of cache demand misses
system.ruby.l1_cntrl1.mandatoryQueue.avg_buf_msgs     0.303735                       # Average number of messages in buffer
system.ruby.l1_cntrl1.mandatoryQueue.avg_stall_time     4.998750                       # Average number of cycles messages are stalled in this MB
system.ruby.l1_cntrl1.requestFromCache.avg_buf_msgs   591.978251                       # Average number of messages in buffer
system.ruby.l1_cntrl1.requestFromCache.avg_stall_time  5087.841358                       # Average number of cycles messages are stalled in this MB
system.ruby.l1_cntrl10.cacheMemory.demand_accesses            0                       # Number of cache demand accesses
system.ruby.l1_cntrl10.cacheMemory.demand_hits            0                       # Number of cache demand hits
system.ruby.l1_cntrl10.cacheMemory.demand_misses            0                       # Number of cache demand misses
system.ruby.l1_cntrl10.mandatoryQueue.avg_buf_msgs     0.290285                       # Average number of messages in buffer
system.ruby.l1_cntrl10.mandatoryQueue.avg_stall_time     4.998750                       # Average number of cycles messages are stalled in this MB
system.ruby.l1_cntrl10.requestFromCache.avg_buf_msgs   567.150692                       # Average number of messages in buffer
system.ruby.l1_cntrl10.requestFromCache.avg_stall_time  2531.477176                       # Average number of cycles messages are stalled in this MB
system.ruby.l1_cntrl11.cacheMemory.demand_accesses            0                       # Number of cache demand accesses
system.ruby.l1_cntrl11.cacheMemory.demand_hits            0                       # Number of cache demand hits
system.ruby.l1_cntrl11.cacheMemory.demand_misses            0                       # Number of cache demand misses
system.ruby.l1_cntrl11.mandatoryQueue.avg_buf_msgs     0.309785                       # Average number of messages in buffer
system.ruby.l1_cntrl11.mandatoryQueue.avg_stall_time     4.998750                       # Average number of cycles messages are stalled in this MB
system.ruby.l1_cntrl11.requestFromCache.avg_buf_msgs   604.094445                       # Average number of messages in buffer
system.ruby.l1_cntrl11.requestFromCache.avg_stall_time  2431.266937                       # Average number of cycles messages are stalled in this MB
system.ruby.l1_cntrl12.cacheMemory.demand_accesses            0                       # Number of cache demand accesses
system.ruby.l1_cntrl12.cacheMemory.demand_hits            0                       # Number of cache demand hits
system.ruby.l1_cntrl12.cacheMemory.demand_misses            0                       # Number of cache demand misses
system.ruby.l1_cntrl12.mandatoryQueue.avg_buf_msgs     0.302485                       # Average number of messages in buffer
system.ruby.l1_cntrl12.mandatoryQueue.avg_stall_time     4.996250                       # Average number of cycles messages are stalled in this MB
system.ruby.l1_cntrl12.requestFromCache.avg_buf_msgs   602.759262                       # Average number of messages in buffer
system.ruby.l1_cntrl12.requestFromCache.avg_stall_time  5907.403880                       # Average number of cycles messages are stalled in this MB
system.ruby.l1_cntrl13.cacheMemory.demand_accesses            0                       # Number of cache demand accesses
system.ruby.l1_cntrl13.cacheMemory.demand_hits            0                       # Number of cache demand hits
system.ruby.l1_cntrl13.cacheMemory.demand_misses            0                       # Number of cache demand misses
system.ruby.l1_cntrl13.mandatoryQueue.avg_buf_msgs     0.293735                       # Average number of messages in buffer
system.ruby.l1_cntrl13.mandatoryQueue.avg_stall_time     4.998750                       # Average number of cycles messages are stalled in this MB
system.ruby.l1_cntrl13.requestFromCache.avg_buf_msgs   576.708915                       # Average number of messages in buffer
system.ruby.l1_cntrl13.requestFromCache.avg_stall_time  2401.960902                       # Average number of cycles messages are stalled in this MB
system.ruby.l1_cntrl14.cacheMemory.demand_accesses            0                       # Number of cache demand accesses
system.ruby.l1_cntrl14.cacheMemory.demand_hits            0                       # Number of cache demand hits
system.ruby.l1_cntrl14.cacheMemory.demand_misses            0                       # Number of cache demand misses
system.ruby.l1_cntrl14.mandatoryQueue.avg_buf_msgs     0.301035                       # Average number of messages in buffer
system.ruby.l1_cntrl14.mandatoryQueue.avg_stall_time     4.998750                       # Average number of cycles messages are stalled in this MB
system.ruby.l1_cntrl14.requestFromCache.avg_buf_msgs   591.251187                       # Average number of messages in buffer
system.ruby.l1_cntrl14.requestFromCache.avg_stall_time  5320.621719                       # Average number of cycles messages are stalled in this MB
system.ruby.l1_cntrl15.cacheMemory.demand_accesses            0                       # Number of cache demand accesses
system.ruby.l1_cntrl15.cacheMemory.demand_hits            0                       # Number of cache demand hits
system.ruby.l1_cntrl15.cacheMemory.demand_misses            0                       # Number of cache demand misses
system.ruby.l1_cntrl15.mandatoryQueue.avg_buf_msgs     0.304785                       # Average number of messages in buffer
system.ruby.l1_cntrl15.mandatoryQueue.avg_stall_time     4.998750                       # Average number of cycles messages are stalled in this MB
system.ruby.l1_cntrl15.requestFromCache.avg_buf_msgs   599.767212                       # Average number of messages in buffer
system.ruby.l1_cntrl15.requestFromCache.avg_stall_time  6627.264137                       # Average number of cycles messages are stalled in this MB
system.ruby.l1_cntrl16.cacheMemory.demand_accesses            0                       # Number of cache demand accesses
system.ruby.l1_cntrl16.cacheMemory.demand_hits            0                       # Number of cache demand hits
system.ruby.l1_cntrl16.cacheMemory.demand_misses            0                       # Number of cache demand misses
system.ruby.l1_cntrl16.mandatoryQueue.avg_buf_msgs     0.299235                       # Average number of messages in buffer
system.ruby.l1_cntrl16.mandatoryQueue.avg_stall_time     4.998750                       # Average number of cycles messages are stalled in this MB
system.ruby.l1_cntrl16.requestFromCache.avg_buf_msgs   596.889606                       # Average number of messages in buffer
system.ruby.l1_cntrl16.requestFromCache.avg_stall_time  5660.560222                       # Average number of cycles messages are stalled in this MB
system.ruby.l1_cntrl17.cacheMemory.demand_accesses            0                       # Number of cache demand accesses
system.ruby.l1_cntrl17.cacheMemory.demand_hits            0                       # Number of cache demand hits
system.ruby.l1_cntrl17.cacheMemory.demand_misses            0                       # Number of cache demand misses
system.ruby.l1_cntrl17.mandatoryQueue.avg_buf_msgs     0.296735                       # Average number of messages in buffer
system.ruby.l1_cntrl17.mandatoryQueue.avg_stall_time     4.998750                       # Average number of cycles messages are stalled in this MB
system.ruby.l1_cntrl17.requestFromCache.avg_buf_msgs   581.486926                       # Average number of messages in buffer
system.ruby.l1_cntrl17.requestFromCache.avg_stall_time  2558.064347                       # Average number of cycles messages are stalled in this MB
system.ruby.l1_cntrl18.cacheMemory.demand_accesses            0                       # Number of cache demand accesses
system.ruby.l1_cntrl18.cacheMemory.demand_hits            0                       # Number of cache demand hits
system.ruby.l1_cntrl18.cacheMemory.demand_misses            0                       # Number of cache demand misses
system.ruby.l1_cntrl18.mandatoryQueue.avg_buf_msgs     0.300235                       # Average number of messages in buffer
system.ruby.l1_cntrl18.mandatoryQueue.avg_stall_time     4.996250                       # Average number of cycles messages are stalled in this MB
system.ruby.l1_cntrl18.requestFromCache.avg_buf_msgs   582.049298                       # Average number of messages in buffer
system.ruby.l1_cntrl18.requestFromCache.avg_stall_time  2270.598470                       # Average number of cycles messages are stalled in this MB
system.ruby.l1_cntrl19.cacheMemory.demand_accesses            0                       # Number of cache demand accesses
system.ruby.l1_cntrl19.cacheMemory.demand_hits            0                       # Number of cache demand hits
system.ruby.l1_cntrl19.cacheMemory.demand_misses            0                       # Number of cache demand misses
system.ruby.l1_cntrl19.mandatoryQueue.avg_buf_msgs     0.294985                       # Average number of messages in buffer
system.ruby.l1_cntrl19.mandatoryQueue.avg_stall_time     4.998750                       # Average number of cycles messages are stalled in this MB
system.ruby.l1_cntrl19.requestFromCache.avg_buf_msgs   587.674666                       # Average number of messages in buffer
system.ruby.l1_cntrl19.requestFromCache.avg_stall_time  1949.170541                       # Average number of cycles messages are stalled in this MB
system.ruby.l1_cntrl2.cacheMemory.demand_accesses            0                       # Number of cache demand accesses
system.ruby.l1_cntrl2.cacheMemory.demand_hits            0                       # Number of cache demand hits
system.ruby.l1_cntrl2.cacheMemory.demand_misses            0                       # Number of cache demand misses
system.ruby.l1_cntrl2.mandatoryQueue.avg_buf_msgs     0.304235                       # Average number of messages in buffer
system.ruby.l1_cntrl2.mandatoryQueue.avg_stall_time     4.998750                       # Average number of cycles messages are stalled in this MB
system.ruby.l1_cntrl2.requestFromCache.avg_buf_msgs   593.286486                       # Average number of messages in buffer
system.ruby.l1_cntrl2.requestFromCache.avg_stall_time  6024.502275                       # Average number of cycles messages are stalled in this MB
system.ruby.l1_cntrl20.cacheMemory.demand_accesses            0                       # Number of cache demand accesses
system.ruby.l1_cntrl20.cacheMemory.demand_hits            0                       # Number of cache demand hits
system.ruby.l1_cntrl20.cacheMemory.demand_misses            0                       # Number of cache demand misses
system.ruby.l1_cntrl20.mandatoryQueue.avg_buf_msgs     0.306735                       # Average number of messages in buffer
system.ruby.l1_cntrl20.mandatoryQueue.avg_stall_time     4.998750                       # Average number of cycles messages are stalled in this MB
system.ruby.l1_cntrl20.requestFromCache.avg_buf_msgs   616.874006                       # Average number of messages in buffer
system.ruby.l1_cntrl20.requestFromCache.avg_stall_time  2314.815009                       # Average number of cycles messages are stalled in this MB
system.ruby.l1_cntrl21.cacheMemory.demand_accesses            0                       # Number of cache demand accesses
system.ruby.l1_cntrl21.cacheMemory.demand_hits            0                       # Number of cache demand hits
system.ruby.l1_cntrl21.cacheMemory.demand_misses            0                       # Number of cache demand misses
system.ruby.l1_cntrl21.mandatoryQueue.avg_buf_msgs     0.305035                       # Average number of messages in buffer
system.ruby.l1_cntrl21.mandatoryQueue.avg_stall_time     4.998750                       # Average number of cycles messages are stalled in this MB
system.ruby.l1_cntrl21.requestFromCache.avg_buf_msgs   596.408730                       # Average number of messages in buffer
system.ruby.l1_cntrl21.requestFromCache.avg_stall_time  2252.036148                       # Average number of cycles messages are stalled in this MB
system.ruby.l1_cntrl22.cacheMemory.demand_accesses            0                       # Number of cache demand accesses
system.ruby.l1_cntrl22.cacheMemory.demand_hits            0                       # Number of cache demand hits
system.ruby.l1_cntrl22.cacheMemory.demand_misses            0                       # Number of cache demand misses
system.ruby.l1_cntrl22.mandatoryQueue.avg_buf_msgs     0.308035                       # Average number of messages in buffer
system.ruby.l1_cntrl22.mandatoryQueue.avg_stall_time     4.998750                       # Average number of cycles messages are stalled in this MB
system.ruby.l1_cntrl22.requestFromCache.avg_buf_msgs   595.930603                       # Average number of messages in buffer
system.ruby.l1_cntrl22.requestFromCache.avg_stall_time  6095.718214                       # Average number of cycles messages are stalled in this MB
system.ruby.l1_cntrl23.cacheMemory.demand_accesses            0                       # Number of cache demand accesses
system.ruby.l1_cntrl23.cacheMemory.demand_hits            0                       # Number of cache demand hits
system.ruby.l1_cntrl23.cacheMemory.demand_misses            0                       # Number of cache demand misses
system.ruby.l1_cntrl23.mandatoryQueue.avg_buf_msgs     0.304035                       # Average number of messages in buffer
system.ruby.l1_cntrl23.mandatoryQueue.avg_stall_time     4.998750                       # Average number of cycles messages are stalled in this MB
system.ruby.l1_cntrl23.requestFromCache.avg_buf_msgs   584.522374                       # Average number of messages in buffer
system.ruby.l1_cntrl23.requestFromCache.avg_stall_time  6058.802310                       # Average number of cycles messages are stalled in this MB
system.ruby.l1_cntrl24.cacheMemory.demand_accesses            0                       # Number of cache demand accesses
system.ruby.l1_cntrl24.cacheMemory.demand_hits            0                       # Number of cache demand hits
system.ruby.l1_cntrl24.cacheMemory.demand_misses            0                       # Number of cache demand misses
system.ruby.l1_cntrl24.mandatoryQueue.avg_buf_msgs     0.301285                       # Average number of messages in buffer
system.ruby.l1_cntrl24.mandatoryQueue.avg_stall_time     4.993750                       # Average number of cycles messages are stalled in this MB
system.ruby.l1_cntrl24.requestFromCache.avg_buf_msgs   584.416079                       # Average number of messages in buffer
system.ruby.l1_cntrl24.requestFromCache.avg_stall_time  5399.968752                       # Average number of cycles messages are stalled in this MB
system.ruby.l1_cntrl25.cacheMemory.demand_accesses            0                       # Number of cache demand accesses
system.ruby.l1_cntrl25.cacheMemory.demand_hits            0                       # Number of cache demand hits
system.ruby.l1_cntrl25.cacheMemory.demand_misses            0                       # Number of cache demand misses
system.ruby.l1_cntrl25.mandatoryQueue.avg_buf_msgs     0.290735                       # Average number of messages in buffer
system.ruby.l1_cntrl25.mandatoryQueue.avg_stall_time     4.998750                       # Average number of cycles messages are stalled in this MB
system.ruby.l1_cntrl25.requestFromCache.avg_buf_msgs   574.682016                       # Average number of messages in buffer
system.ruby.l1_cntrl25.requestFromCache.avg_stall_time  5506.345433                       # Average number of cycles messages are stalled in this MB
system.ruby.l1_cntrl26.cacheMemory.demand_accesses            0                       # Number of cache demand accesses
system.ruby.l1_cntrl26.cacheMemory.demand_hits            0                       # Number of cache demand hits
system.ruby.l1_cntrl26.cacheMemory.demand_misses            0                       # Number of cache demand misses
system.ruby.l1_cntrl26.mandatoryQueue.avg_buf_msgs     0.299785                       # Average number of messages in buffer
system.ruby.l1_cntrl26.mandatoryQueue.avg_stall_time     4.998750                       # Average number of cycles messages are stalled in this MB
system.ruby.l1_cntrl26.requestFromCache.avg_buf_msgs   585.182741                       # Average number of messages in buffer
system.ruby.l1_cntrl26.requestFromCache.avg_stall_time  5816.531423                       # Average number of cycles messages are stalled in this MB
system.ruby.l1_cntrl27.cacheMemory.demand_accesses            0                       # Number of cache demand accesses
system.ruby.l1_cntrl27.cacheMemory.demand_hits            0                       # Number of cache demand hits
system.ruby.l1_cntrl27.cacheMemory.demand_misses            0                       # Number of cache demand misses
system.ruby.l1_cntrl27.mandatoryQueue.avg_buf_msgs     0.304235                       # Average number of messages in buffer
system.ruby.l1_cntrl27.mandatoryQueue.avg_stall_time     4.998750                       # Average number of cycles messages are stalled in this MB
system.ruby.l1_cntrl27.requestFromCache.avg_buf_msgs   598.408380                       # Average number of messages in buffer
system.ruby.l1_cntrl27.requestFromCache.avg_stall_time  4489.493025                       # Average number of cycles messages are stalled in this MB
system.ruby.l1_cntrl28.cacheMemory.demand_accesses            0                       # Number of cache demand accesses
system.ruby.l1_cntrl28.cacheMemory.demand_hits            0                       # Number of cache demand hits
system.ruby.l1_cntrl28.cacheMemory.demand_misses            0                       # Number of cache demand misses
system.ruby.l1_cntrl28.mandatoryQueue.avg_buf_msgs     0.297985                       # Average number of messages in buffer
system.ruby.l1_cntrl28.mandatoryQueue.avg_stall_time     4.998750                       # Average number of cycles messages are stalled in this MB
system.ruby.l1_cntrl28.requestFromCache.avg_buf_msgs   577.517974                       # Average number of messages in buffer
system.ruby.l1_cntrl28.requestFromCache.avg_stall_time  2471.552422                       # Average number of cycles messages are stalled in this MB
system.ruby.l1_cntrl29.cacheMemory.demand_accesses            0                       # Number of cache demand accesses
system.ruby.l1_cntrl29.cacheMemory.demand_hits            0                       # Number of cache demand hits
system.ruby.l1_cntrl29.cacheMemory.demand_misses            0                       # Number of cache demand misses
system.ruby.l1_cntrl29.mandatoryQueue.avg_buf_msgs     0.302035                       # Average number of messages in buffer
system.ruby.l1_cntrl29.mandatoryQueue.avg_stall_time     4.993750                       # Average number of cycles messages are stalled in this MB
system.ruby.l1_cntrl29.requestFromCache.avg_buf_msgs   593.691915                       # Average number of messages in buffer
system.ruby.l1_cntrl29.requestFromCache.avg_stall_time  4804.541523                       # Average number of cycles messages are stalled in this MB
system.ruby.l1_cntrl3.cacheMemory.demand_accesses            0                       # Number of cache demand accesses
system.ruby.l1_cntrl3.cacheMemory.demand_hits            0                       # Number of cache demand hits
system.ruby.l1_cntrl3.cacheMemory.demand_misses            0                       # Number of cache demand misses
system.ruby.l1_cntrl3.mandatoryQueue.avg_buf_msgs     0.302235                       # Average number of messages in buffer
system.ruby.l1_cntrl3.mandatoryQueue.avg_stall_time     4.998750                       # Average number of cycles messages are stalled in this MB
system.ruby.l1_cntrl3.requestFromCache.avg_buf_msgs   576.916004                       # Average number of messages in buffer
system.ruby.l1_cntrl3.requestFromCache.avg_stall_time  4695.395230                       # Average number of cycles messages are stalled in this MB
system.ruby.l1_cntrl30.cacheMemory.demand_accesses            0                       # Number of cache demand accesses
system.ruby.l1_cntrl30.cacheMemory.demand_hits            0                       # Number of cache demand hits
system.ruby.l1_cntrl30.cacheMemory.demand_misses            0                       # Number of cache demand misses
system.ruby.l1_cntrl30.mandatoryQueue.avg_buf_msgs     0.297735                       # Average number of messages in buffer
system.ruby.l1_cntrl30.mandatoryQueue.avg_stall_time     4.991250                       # Average number of cycles messages are stalled in this MB
system.ruby.l1_cntrl30.requestFromCache.avg_buf_msgs   590.092795                       # Average number of messages in buffer
system.ruby.l1_cntrl30.requestFromCache.avg_stall_time  2002.112644                       # Average number of cycles messages are stalled in this MB
system.ruby.l1_cntrl31.cacheMemory.demand_accesses            0                       # Number of cache demand accesses
system.ruby.l1_cntrl31.cacheMemory.demand_hits            0                       # Number of cache demand hits
system.ruby.l1_cntrl31.cacheMemory.demand_misses            0                       # Number of cache demand misses
system.ruby.l1_cntrl31.mandatoryQueue.avg_buf_msgs     0.294285                       # Average number of messages in buffer
system.ruby.l1_cntrl31.mandatoryQueue.avg_stall_time     4.996250                       # Average number of cycles messages are stalled in this MB
system.ruby.l1_cntrl31.requestFromCache.avg_buf_msgs   576.501025                       # Average number of messages in buffer
system.ruby.l1_cntrl31.requestFromCache.avg_stall_time  6030.552222                       # Average number of cycles messages are stalled in this MB
system.ruby.l1_cntrl32.cacheMemory.demand_accesses            0                       # Number of cache demand accesses
system.ruby.l1_cntrl32.cacheMemory.demand_hits            0                       # Number of cache demand hits
system.ruby.l1_cntrl32.cacheMemory.demand_misses            0                       # Number of cache demand misses
system.ruby.l1_cntrl32.mandatoryQueue.avg_buf_msgs     0.312234                       # Average number of messages in buffer
system.ruby.l1_cntrl32.mandatoryQueue.avg_stall_time     4.996250                       # Average number of cycles messages are stalled in this MB
system.ruby.l1_cntrl32.requestFromCache.avg_buf_msgs   614.603570                       # Average number of messages in buffer
system.ruby.l1_cntrl32.requestFromCache.avg_stall_time  4581.193690                       # Average number of cycles messages are stalled in this MB
system.ruby.l1_cntrl33.cacheMemory.demand_accesses            0                       # Number of cache demand accesses
system.ruby.l1_cntrl33.cacheMemory.demand_hits            0                       # Number of cache demand hits
system.ruby.l1_cntrl33.cacheMemory.demand_misses            0                       # Number of cache demand misses
system.ruby.l1_cntrl33.mandatoryQueue.avg_buf_msgs     0.294035                       # Average number of messages in buffer
system.ruby.l1_cntrl33.mandatoryQueue.avg_stall_time     4.998750                       # Average number of cycles messages are stalled in this MB
system.ruby.l1_cntrl33.requestFromCache.avg_buf_msgs   581.079646                       # Average number of messages in buffer
system.ruby.l1_cntrl33.requestFromCache.avg_stall_time  5238.600820                       # Average number of cycles messages are stalled in this MB
system.ruby.l1_cntrl34.cacheMemory.demand_accesses            0                       # Number of cache demand accesses
system.ruby.l1_cntrl34.cacheMemory.demand_hits            0                       # Number of cache demand hits
system.ruby.l1_cntrl34.cacheMemory.demand_misses            0                       # Number of cache demand misses
system.ruby.l1_cntrl34.mandatoryQueue.avg_buf_msgs     0.294985                       # Average number of messages in buffer
system.ruby.l1_cntrl34.mandatoryQueue.avg_stall_time     4.998750                       # Average number of cycles messages are stalled in this MB
system.ruby.l1_cntrl34.requestFromCache.avg_buf_msgs   570.008600                       # Average number of messages in buffer
system.ruby.l1_cntrl34.requestFromCache.avg_stall_time  2798.003350                       # Average number of cycles messages are stalled in this MB
system.ruby.l1_cntrl35.cacheMemory.demand_accesses            0                       # Number of cache demand accesses
system.ruby.l1_cntrl35.cacheMemory.demand_hits            0                       # Number of cache demand hits
system.ruby.l1_cntrl35.cacheMemory.demand_misses            0                       # Number of cache demand misses
system.ruby.l1_cntrl35.mandatoryQueue.avg_buf_msgs     0.299535                       # Average number of messages in buffer
system.ruby.l1_cntrl35.mandatoryQueue.avg_stall_time     4.998750                       # Average number of cycles messages are stalled in this MB
system.ruby.l1_cntrl35.requestFromCache.avg_buf_msgs   578.265587                       # Average number of messages in buffer
system.ruby.l1_cntrl35.requestFromCache.avg_stall_time  5302.771111                       # Average number of cycles messages are stalled in this MB
system.ruby.l1_cntrl36.cacheMemory.demand_accesses            0                       # Number of cache demand accesses
system.ruby.l1_cntrl36.cacheMemory.demand_hits            0                       # Number of cache demand hits
system.ruby.l1_cntrl36.cacheMemory.demand_misses            0                       # Number of cache demand misses
system.ruby.l1_cntrl36.mandatoryQueue.avg_buf_msgs     0.292485                       # Average number of messages in buffer
system.ruby.l1_cntrl36.mandatoryQueue.avg_stall_time     4.993750                       # Average number of cycles messages are stalled in this MB
system.ruby.l1_cntrl36.requestFromCache.avg_buf_msgs   570.204640                       # Average number of messages in buffer
system.ruby.l1_cntrl36.requestFromCache.avg_stall_time  4951.162942                       # Average number of cycles messages are stalled in this MB
system.ruby.l1_cntrl37.cacheMemory.demand_accesses            0                       # Number of cache demand accesses
system.ruby.l1_cntrl37.cacheMemory.demand_hits            0                       # Number of cache demand hits
system.ruby.l1_cntrl37.cacheMemory.demand_misses            0                       # Number of cache demand misses
system.ruby.l1_cntrl37.mandatoryQueue.avg_buf_msgs     0.301035                       # Average number of messages in buffer
system.ruby.l1_cntrl37.mandatoryQueue.avg_stall_time     4.996250                       # Average number of cycles messages are stalled in this MB
system.ruby.l1_cntrl37.requestFromCache.avg_buf_msgs   579.999900                       # Average number of messages in buffer
system.ruby.l1_cntrl37.requestFromCache.avg_stall_time  7108.196840                       # Average number of cycles messages are stalled in this MB
system.ruby.l1_cntrl38.cacheMemory.demand_accesses            0                       # Number of cache demand accesses
system.ruby.l1_cntrl38.cacheMemory.demand_hits            0                       # Number of cache demand hits
system.ruby.l1_cntrl38.cacheMemory.demand_misses            0                       # Number of cache demand misses
system.ruby.l1_cntrl38.mandatoryQueue.avg_buf_msgs     0.297535                       # Average number of messages in buffer
system.ruby.l1_cntrl38.mandatoryQueue.avg_stall_time     4.998750                       # Average number of cycles messages are stalled in this MB
system.ruby.l1_cntrl38.requestFromCache.avg_buf_msgs   581.877256                       # Average number of messages in buffer
system.ruby.l1_cntrl38.requestFromCache.avg_stall_time  4803.230588                       # Average number of cycles messages are stalled in this MB
system.ruby.l1_cntrl39.cacheMemory.demand_accesses            0                       # Number of cache demand accesses
system.ruby.l1_cntrl39.cacheMemory.demand_hits            0                       # Number of cache demand hits
system.ruby.l1_cntrl39.cacheMemory.demand_misses            0                       # Number of cache demand misses
system.ruby.l1_cntrl39.mandatoryQueue.avg_buf_msgs     0.294235                       # Average number of messages in buffer
system.ruby.l1_cntrl39.mandatoryQueue.avg_stall_time     4.998750                       # Average number of cycles messages are stalled in this MB
system.ruby.l1_cntrl39.requestFromCache.avg_buf_msgs   575.024349                       # Average number of messages in buffer
system.ruby.l1_cntrl39.requestFromCache.avg_stall_time  6089.848008                       # Average number of cycles messages are stalled in this MB
system.ruby.l1_cntrl4.cacheMemory.demand_accesses            0                       # Number of cache demand accesses
system.ruby.l1_cntrl4.cacheMemory.demand_hits            0                       # Number of cache demand hits
system.ruby.l1_cntrl4.cacheMemory.demand_misses            0                       # Number of cache demand misses
system.ruby.l1_cntrl4.mandatoryQueue.avg_buf_msgs     0.306785                       # Average number of messages in buffer
system.ruby.l1_cntrl4.mandatoryQueue.avg_stall_time     4.998750                       # Average number of cycles messages are stalled in this MB
system.ruby.l1_cntrl4.requestFromCache.avg_buf_msgs   607.119644                       # Average number of messages in buffer
system.ruby.l1_cntrl4.requestFromCache.avg_stall_time  2392.690115                       # Average number of cycles messages are stalled in this MB
system.ruby.l1_cntrl40.cacheMemory.demand_accesses            0                       # Number of cache demand accesses
system.ruby.l1_cntrl40.cacheMemory.demand_hits            0                       # Number of cache demand hits
system.ruby.l1_cntrl40.cacheMemory.demand_misses            0                       # Number of cache demand misses
system.ruby.l1_cntrl40.mandatoryQueue.avg_buf_msgs     0.287736                       # Average number of messages in buffer
system.ruby.l1_cntrl40.mandatoryQueue.avg_stall_time     4.993750                       # Average number of cycles messages are stalled in this MB
system.ruby.l1_cntrl40.requestFromCache.avg_buf_msgs   553.826409                       # Average number of messages in buffer
system.ruby.l1_cntrl40.requestFromCache.avg_stall_time  2232.875106                       # Average number of cycles messages are stalled in this MB
system.ruby.l1_cntrl41.cacheMemory.demand_accesses            0                       # Number of cache demand accesses
system.ruby.l1_cntrl41.cacheMemory.demand_hits            0                       # Number of cache demand hits
system.ruby.l1_cntrl41.cacheMemory.demand_misses            0                       # Number of cache demand misses
system.ruby.l1_cntrl41.mandatoryQueue.avg_buf_msgs     0.297985                       # Average number of messages in buffer
system.ruby.l1_cntrl41.mandatoryQueue.avg_stall_time     4.998750                       # Average number of cycles messages are stalled in this MB
system.ruby.l1_cntrl41.requestFromCache.avg_buf_msgs   580.865507                       # Average number of messages in buffer
system.ruby.l1_cntrl41.requestFromCache.avg_stall_time  2160.690215                       # Average number of cycles messages are stalled in this MB
system.ruby.l1_cntrl42.cacheMemory.demand_accesses            0                       # Number of cache demand accesses
system.ruby.l1_cntrl42.cacheMemory.demand_hits            0                       # Number of cache demand hits
system.ruby.l1_cntrl42.cacheMemory.demand_misses            0                       # Number of cache demand misses
system.ruby.l1_cntrl42.mandatoryQueue.avg_buf_msgs     0.297035                       # Average number of messages in buffer
system.ruby.l1_cntrl42.mandatoryQueue.avg_stall_time     4.998750                       # Average number of cycles messages are stalled in this MB
system.ruby.l1_cntrl42.requestFromCache.avg_buf_msgs   580.165142                       # Average number of messages in buffer
system.ruby.l1_cntrl42.requestFromCache.avg_stall_time   240.410229                       # Average number of cycles messages are stalled in this MB
system.ruby.l1_cntrl43.cacheMemory.demand_accesses            0                       # Number of cache demand accesses
system.ruby.l1_cntrl43.cacheMemory.demand_hits            0                       # Number of cache demand hits
system.ruby.l1_cntrl43.cacheMemory.demand_misses            0                       # Number of cache demand misses
system.ruby.l1_cntrl43.mandatoryQueue.avg_buf_msgs     0.297235                       # Average number of messages in buffer
system.ruby.l1_cntrl43.mandatoryQueue.avg_stall_time     4.998750                       # Average number of cycles messages are stalled in this MB
system.ruby.l1_cntrl43.requestFromCache.avg_buf_msgs   560.279836                       # Average number of messages in buffer
system.ruby.l1_cntrl43.requestFromCache.avg_stall_time  2204.434778                       # Average number of cycles messages are stalled in this MB
system.ruby.l1_cntrl44.cacheMemory.demand_accesses            0                       # Number of cache demand accesses
system.ruby.l1_cntrl44.cacheMemory.demand_hits            0                       # Number of cache demand hits
system.ruby.l1_cntrl44.cacheMemory.demand_misses            0                       # Number of cache demand misses
system.ruby.l1_cntrl44.mandatoryQueue.avg_buf_msgs     0.289536                       # Average number of messages in buffer
system.ruby.l1_cntrl44.mandatoryQueue.avg_stall_time     4.998750                       # Average number of cycles messages are stalled in this MB
system.ruby.l1_cntrl44.requestFromCache.avg_buf_msgs   570.058197                       # Average number of messages in buffer
system.ruby.l1_cntrl44.requestFromCache.avg_stall_time   191.817659                       # Average number of cycles messages are stalled in this MB
system.ruby.l1_cntrl45.cacheMemory.demand_accesses            0                       # Number of cache demand accesses
system.ruby.l1_cntrl45.cacheMemory.demand_hits            0                       # Number of cache demand hits
system.ruby.l1_cntrl45.cacheMemory.demand_misses            0                       # Number of cache demand misses
system.ruby.l1_cntrl45.mandatoryQueue.avg_buf_msgs     0.303235                       # Average number of messages in buffer
system.ruby.l1_cntrl45.mandatoryQueue.avg_stall_time     4.998750                       # Average number of cycles messages are stalled in this MB
system.ruby.l1_cntrl45.requestFromCache.avg_buf_msgs   590.852807                       # Average number of messages in buffer
system.ruby.l1_cntrl45.requestFromCache.avg_stall_time  1994.928004                       # Average number of cycles messages are stalled in this MB
system.ruby.l1_cntrl46.cacheMemory.demand_accesses            0                       # Number of cache demand accesses
system.ruby.l1_cntrl46.cacheMemory.demand_hits            0                       # Number of cache demand hits
system.ruby.l1_cntrl46.cacheMemory.demand_misses            0                       # Number of cache demand misses
system.ruby.l1_cntrl46.mandatoryQueue.avg_buf_msgs     0.288786                       # Average number of messages in buffer
system.ruby.l1_cntrl46.mandatoryQueue.avg_stall_time     4.998750                       # Average number of cycles messages are stalled in this MB
system.ruby.l1_cntrl46.requestFromCache.avg_buf_msgs   564.935053                       # Average number of messages in buffer
system.ruby.l1_cntrl46.requestFromCache.avg_stall_time  4843.330583                       # Average number of cycles messages are stalled in this MB
system.ruby.l1_cntrl47.cacheMemory.demand_accesses            0                       # Number of cache demand accesses
system.ruby.l1_cntrl47.cacheMemory.demand_hits            0                       # Number of cache demand hits
system.ruby.l1_cntrl47.cacheMemory.demand_misses            0                       # Number of cache demand misses
system.ruby.l1_cntrl47.mandatoryQueue.avg_buf_msgs     0.303285                       # Average number of messages in buffer
system.ruby.l1_cntrl47.mandatoryQueue.avg_stall_time     4.996250                       # Average number of cycles messages are stalled in this MB
system.ruby.l1_cntrl47.requestFromCache.avg_buf_msgs   589.585371                       # Average number of messages in buffer
system.ruby.l1_cntrl47.requestFromCache.avg_stall_time  6275.618219                       # Average number of cycles messages are stalled in this MB
system.ruby.l1_cntrl48.cacheMemory.demand_accesses            0                       # Number of cache demand accesses
system.ruby.l1_cntrl48.cacheMemory.demand_hits            0                       # Number of cache demand hits
system.ruby.l1_cntrl48.cacheMemory.demand_misses            0                       # Number of cache demand misses
system.ruby.l1_cntrl48.mandatoryQueue.avg_buf_msgs     0.308035                       # Average number of messages in buffer
system.ruby.l1_cntrl48.mandatoryQueue.avg_stall_time     4.991250                       # Average number of cycles messages are stalled in this MB
system.ruby.l1_cntrl48.requestFromCache.avg_buf_msgs   614.099795                       # Average number of messages in buffer
system.ruby.l1_cntrl48.requestFromCache.avg_stall_time  4475.222489                       # Average number of cycles messages are stalled in this MB
system.ruby.l1_cntrl49.cacheMemory.demand_accesses            0                       # Number of cache demand accesses
system.ruby.l1_cntrl49.cacheMemory.demand_hits            0                       # Number of cache demand hits
system.ruby.l1_cntrl49.cacheMemory.demand_misses            0                       # Number of cache demand misses
system.ruby.l1_cntrl49.mandatoryQueue.avg_buf_msgs     0.292285                       # Average number of messages in buffer
system.ruby.l1_cntrl49.mandatoryQueue.avg_stall_time     4.998750                       # Average number of cycles messages are stalled in this MB
system.ruby.l1_cntrl49.requestFromCache.avg_buf_msgs   565.665217                       # Average number of messages in buffer
system.ruby.l1_cntrl49.requestFromCache.avg_stall_time  6598.316584                       # Average number of cycles messages are stalled in this MB
system.ruby.l1_cntrl5.cacheMemory.demand_accesses            0                       # Number of cache demand accesses
system.ruby.l1_cntrl5.cacheMemory.demand_hits            0                       # Number of cache demand hits
system.ruby.l1_cntrl5.cacheMemory.demand_misses            0                       # Number of cache demand misses
system.ruby.l1_cntrl5.mandatoryQueue.avg_buf_msgs     0.307035                       # Average number of messages in buffer
system.ruby.l1_cntrl5.mandatoryQueue.avg_stall_time     4.998750                       # Average number of cycles messages are stalled in this MB
system.ruby.l1_cntrl5.requestFromCache.avg_buf_msgs   596.734413                       # Average number of messages in buffer
system.ruby.l1_cntrl5.requestFromCache.avg_stall_time  4165.394480                       # Average number of cycles messages are stalled in this MB
system.ruby.l1_cntrl50.cacheMemory.demand_accesses            0                       # Number of cache demand accesses
system.ruby.l1_cntrl50.cacheMemory.demand_hits            0                       # Number of cache demand hits
system.ruby.l1_cntrl50.cacheMemory.demand_misses            0                       # Number of cache demand misses
system.ruby.l1_cntrl50.mandatoryQueue.avg_buf_msgs     0.292035                       # Average number of messages in buffer
system.ruby.l1_cntrl50.mandatoryQueue.avg_stall_time     4.998750                       # Average number of cycles messages are stalled in this MB
system.ruby.l1_cntrl50.requestFromCache.avg_buf_msgs   564.304785                       # Average number of messages in buffer
system.ruby.l1_cntrl50.requestFromCache.avg_stall_time  6181.636418                       # Average number of cycles messages are stalled in this MB
system.ruby.l1_cntrl51.cacheMemory.demand_accesses            0                       # Number of cache demand accesses
system.ruby.l1_cntrl51.cacheMemory.demand_hits            0                       # Number of cache demand hits
system.ruby.l1_cntrl51.cacheMemory.demand_misses            0                       # Number of cache demand misses
system.ruby.l1_cntrl51.mandatoryQueue.avg_buf_msgs     0.282536                       # Average number of messages in buffer
system.ruby.l1_cntrl51.mandatoryQueue.avg_stall_time     4.998750                       # Average number of cycles messages are stalled in this MB
system.ruby.l1_cntrl51.requestFromCache.avg_buf_msgs   553.871006                       # Average number of messages in buffer
system.ruby.l1_cntrl51.requestFromCache.avg_stall_time  4948.534823                       # Average number of cycles messages are stalled in this MB
system.ruby.l1_cntrl52.cacheMemory.demand_accesses            0                       # Number of cache demand accesses
system.ruby.l1_cntrl52.cacheMemory.demand_hits            0                       # Number of cache demand hits
system.ruby.l1_cntrl52.cacheMemory.demand_misses            0                       # Number of cache demand misses
system.ruby.l1_cntrl52.mandatoryQueue.avg_buf_msgs     0.298285                       # Average number of messages in buffer
system.ruby.l1_cntrl52.mandatoryQueue.avg_stall_time     4.998750                       # Average number of cycles messages are stalled in this MB
system.ruby.l1_cntrl52.requestFromCache.avg_buf_msgs   574.173491                       # Average number of messages in buffer
system.ruby.l1_cntrl52.requestFromCache.avg_stall_time  2389.928254                       # Average number of cycles messages are stalled in this MB
system.ruby.l1_cntrl53.cacheMemory.demand_accesses            0                       # Number of cache demand accesses
system.ruby.l1_cntrl53.cacheMemory.demand_hits            0                       # Number of cache demand hits
system.ruby.l1_cntrl53.cacheMemory.demand_misses            0                       # Number of cache demand misses
system.ruby.l1_cntrl53.mandatoryQueue.avg_buf_msgs     0.291785                       # Average number of messages in buffer
system.ruby.l1_cntrl53.mandatoryQueue.avg_stall_time     4.986251                       # Average number of cycles messages are stalled in this MB
system.ruby.l1_cntrl53.requestFromCache.avg_buf_msgs   576.330533                       # Average number of messages in buffer
system.ruby.l1_cntrl53.requestFromCache.avg_stall_time  5918.918304                       # Average number of cycles messages are stalled in this MB
system.ruby.l1_cntrl54.cacheMemory.demand_accesses            0                       # Number of cache demand accesses
system.ruby.l1_cntrl54.cacheMemory.demand_hits            0                       # Number of cache demand hits
system.ruby.l1_cntrl54.cacheMemory.demand_misses            0                       # Number of cache demand misses
system.ruby.l1_cntrl54.mandatoryQueue.avg_buf_msgs     0.298285                       # Average number of messages in buffer
system.ruby.l1_cntrl54.mandatoryQueue.avg_stall_time     4.998750                       # Average number of cycles messages are stalled in this MB
system.ruby.l1_cntrl54.requestFromCache.avg_buf_msgs   586.875856                       # Average number of messages in buffer
system.ruby.l1_cntrl54.requestFromCache.avg_stall_time  6144.644768                       # Average number of cycles messages are stalled in this MB
system.ruby.l1_cntrl55.cacheMemory.demand_accesses            0                       # Number of cache demand accesses
system.ruby.l1_cntrl55.cacheMemory.demand_hits            0                       # Number of cache demand hits
system.ruby.l1_cntrl55.cacheMemory.demand_misses            0                       # Number of cache demand misses
system.ruby.l1_cntrl55.mandatoryQueue.avg_buf_msgs     0.298535                       # Average number of messages in buffer
system.ruby.l1_cntrl55.mandatoryQueue.avg_stall_time     4.998750                       # Average number of cycles messages are stalled in this MB
system.ruby.l1_cntrl55.requestFromCache.avg_buf_msgs   573.548573                       # Average number of messages in buffer
system.ruby.l1_cntrl55.requestFromCache.avg_stall_time  6715.391980                       # Average number of cycles messages are stalled in this MB
system.ruby.l1_cntrl56.cacheMemory.demand_accesses            0                       # Number of cache demand accesses
system.ruby.l1_cntrl56.cacheMemory.demand_hits            0                       # Number of cache demand hits
system.ruby.l1_cntrl56.cacheMemory.demand_misses            0                       # Number of cache demand misses
system.ruby.l1_cntrl56.mandatoryQueue.avg_buf_msgs     0.302035                       # Average number of messages in buffer
system.ruby.l1_cntrl56.mandatoryQueue.avg_stall_time     4.998750                       # Average number of cycles messages are stalled in this MB
system.ruby.l1_cntrl56.requestFromCache.avg_buf_msgs   584.889356                       # Average number of messages in buffer
system.ruby.l1_cntrl56.requestFromCache.avg_stall_time  6760.297985                       # Average number of cycles messages are stalled in this MB
system.ruby.l1_cntrl57.cacheMemory.demand_accesses            0                       # Number of cache demand accesses
system.ruby.l1_cntrl57.cacheMemory.demand_hits            0                       # Number of cache demand hits
system.ruby.l1_cntrl57.cacheMemory.demand_misses            0                       # Number of cache demand misses
system.ruby.l1_cntrl57.mandatoryQueue.avg_buf_msgs     0.288786                       # Average number of messages in buffer
system.ruby.l1_cntrl57.mandatoryQueue.avg_stall_time     4.998750                       # Average number of cycles messages are stalled in this MB
system.ruby.l1_cntrl57.requestFromCache.avg_buf_msgs   568.235788                       # Average number of messages in buffer
system.ruby.l1_cntrl57.requestFromCache.avg_stall_time  4677.636118                       # Average number of cycles messages are stalled in this MB
system.ruby.l1_cntrl58.cacheMemory.demand_accesses            0                       # Number of cache demand accesses
system.ruby.l1_cntrl58.cacheMemory.demand_hits            0                       # Number of cache demand hits
system.ruby.l1_cntrl58.cacheMemory.demand_misses            0                       # Number of cache demand misses
system.ruby.l1_cntrl58.mandatoryQueue.avg_buf_msgs     0.301235                       # Average number of messages in buffer
system.ruby.l1_cntrl58.mandatoryQueue.avg_stall_time     4.998750                       # Average number of cycles messages are stalled in this MB
system.ruby.l1_cntrl58.requestFromCache.avg_buf_msgs   585.020799                       # Average number of messages in buffer
system.ruby.l1_cntrl58.requestFromCache.avg_stall_time  5835.628719                       # Average number of cycles messages are stalled in this MB
system.ruby.l1_cntrl59.cacheMemory.demand_accesses            0                       # Number of cache demand accesses
system.ruby.l1_cntrl59.cacheMemory.demand_hits            0                       # Number of cache demand hits
system.ruby.l1_cntrl59.cacheMemory.demand_misses            0                       # Number of cache demand misses
system.ruby.l1_cntrl59.mandatoryQueue.avg_buf_msgs     0.293785                       # Average number of messages in buffer
system.ruby.l1_cntrl59.mandatoryQueue.avg_stall_time     4.998750                       # Average number of cycles messages are stalled in this MB
system.ruby.l1_cntrl59.requestFromCache.avg_buf_msgs   572.584021                       # Average number of messages in buffer
system.ruby.l1_cntrl59.requestFromCache.avg_stall_time  6874.626019                       # Average number of cycles messages are stalled in this MB
system.ruby.l1_cntrl6.cacheMemory.demand_accesses            0                       # Number of cache demand accesses
system.ruby.l1_cntrl6.cacheMemory.demand_hits            0                       # Number of cache demand hits
system.ruby.l1_cntrl6.cacheMemory.demand_misses            0                       # Number of cache demand misses
system.ruby.l1_cntrl6.mandatoryQueue.avg_buf_msgs     0.309785                       # Average number of messages in buffer
system.ruby.l1_cntrl6.mandatoryQueue.avg_stall_time     4.993750                       # Average number of cycles messages are stalled in this MB
system.ruby.l1_cntrl6.requestFromCache.avg_buf_msgs   608.555372                       # Average number of messages in buffer
system.ruby.l1_cntrl6.requestFromCache.avg_stall_time  2591.672416                       # Average number of cycles messages are stalled in this MB
system.ruby.l1_cntrl60.cacheMemory.demand_accesses            0                       # Number of cache demand accesses
system.ruby.l1_cntrl60.cacheMemory.demand_hits            0                       # Number of cache demand hits
system.ruby.l1_cntrl60.cacheMemory.demand_misses            0                       # Number of cache demand misses
system.ruby.l1_cntrl60.mandatoryQueue.avg_buf_msgs     0.297785                       # Average number of messages in buffer
system.ruby.l1_cntrl60.mandatoryQueue.avg_stall_time     4.998750                       # Average number of cycles messages are stalled in this MB
system.ruby.l1_cntrl60.requestFromCache.avg_buf_msgs   586.517824                       # Average number of messages in buffer
system.ruby.l1_cntrl60.requestFromCache.avg_stall_time  5961.514174                       # Average number of cycles messages are stalled in this MB
system.ruby.l1_cntrl61.cacheMemory.demand_accesses            0                       # Number of cache demand accesses
system.ruby.l1_cntrl61.cacheMemory.demand_hits            0                       # Number of cache demand hits
system.ruby.l1_cntrl61.cacheMemory.demand_misses            0                       # Number of cache demand misses
system.ruby.l1_cntrl61.mandatoryQueue.avg_buf_msgs     0.294485                       # Average number of messages in buffer
system.ruby.l1_cntrl61.mandatoryQueue.avg_stall_time     4.996250                       # Average number of cycles messages are stalled in this MB
system.ruby.l1_cntrl61.requestFromCache.avg_buf_msgs   577.166642                       # Average number of messages in buffer
system.ruby.l1_cntrl61.requestFromCache.avg_stall_time  4763.786061                       # Average number of cycles messages are stalled in this MB
system.ruby.l1_cntrl62.cacheMemory.demand_accesses            0                       # Number of cache demand accesses
system.ruby.l1_cntrl62.cacheMemory.demand_hits            0                       # Number of cache demand hits
system.ruby.l1_cntrl62.cacheMemory.demand_misses            0                       # Number of cache demand misses
system.ruby.l1_cntrl62.mandatoryQueue.avg_buf_msgs     0.295985                       # Average number of messages in buffer
system.ruby.l1_cntrl62.mandatoryQueue.avg_stall_time     4.998750                       # Average number of cycles messages are stalled in this MB
system.ruby.l1_cntrl62.requestFromCache.avg_buf_msgs   574.190940                       # Average number of messages in buffer
system.ruby.l1_cntrl62.requestFromCache.avg_stall_time   221.062697                       # Average number of cycles messages are stalled in this MB
system.ruby.l1_cntrl63.cacheMemory.demand_accesses            0                       # Number of cache demand accesses
system.ruby.l1_cntrl63.cacheMemory.demand_hits            0                       # Number of cache demand hits
system.ruby.l1_cntrl63.cacheMemory.demand_misses            0                       # Number of cache demand misses
system.ruby.l1_cntrl63.mandatoryQueue.avg_buf_msgs     0.298535                       # Average number of messages in buffer
system.ruby.l1_cntrl63.mandatoryQueue.avg_stall_time     4.996250                       # Average number of cycles messages are stalled in this MB
system.ruby.l1_cntrl63.requestFromCache.avg_buf_msgs   589.368832                       # Average number of messages in buffer
system.ruby.l1_cntrl63.requestFromCache.avg_stall_time  5081.260687                       # Average number of cycles messages are stalled in this MB
system.ruby.l1_cntrl7.cacheMemory.demand_accesses            0                       # Number of cache demand accesses
system.ruby.l1_cntrl7.cacheMemory.demand_hits            0                       # Number of cache demand hits
system.ruby.l1_cntrl7.cacheMemory.demand_misses            0                       # Number of cache demand misses
system.ruby.l1_cntrl7.mandatoryQueue.avg_buf_msgs     0.299035                       # Average number of messages in buffer
system.ruby.l1_cntrl7.mandatoryQueue.avg_stall_time     4.998750                       # Average number of cycles messages are stalled in this MB
system.ruby.l1_cntrl7.requestFromCache.avg_buf_msgs   579.151992                       # Average number of messages in buffer
system.ruby.l1_cntrl7.requestFromCache.avg_stall_time  4778.972301                       # Average number of cycles messages are stalled in this MB
system.ruby.l1_cntrl8.cacheMemory.demand_accesses            0                       # Number of cache demand accesses
system.ruby.l1_cntrl8.cacheMemory.demand_hits            0                       # Number of cache demand hits
system.ruby.l1_cntrl8.cacheMemory.demand_misses            0                       # Number of cache demand misses
system.ruby.l1_cntrl8.mandatoryQueue.avg_buf_msgs     0.294535                       # Average number of messages in buffer
system.ruby.l1_cntrl8.mandatoryQueue.avg_stall_time     4.991250                       # Average number of cycles messages are stalled in this MB
system.ruby.l1_cntrl8.requestFromCache.avg_buf_msgs   584.182591                       # Average number of messages in buffer
system.ruby.l1_cntrl8.requestFromCache.avg_stall_time  2316.827909                       # Average number of cycles messages are stalled in this MB
system.ruby.l1_cntrl9.cacheMemory.demand_accesses            0                       # Number of cache demand accesses
system.ruby.l1_cntrl9.cacheMemory.demand_hits            0                       # Number of cache demand hits
system.ruby.l1_cntrl9.cacheMemory.demand_misses            0                       # Number of cache demand misses
system.ruby.l1_cntrl9.mandatoryQueue.avg_buf_msgs     0.299485                       # Average number of messages in buffer
system.ruby.l1_cntrl9.mandatoryQueue.avg_stall_time     4.998750                       # Average number of cycles messages are stalled in this MB
system.ruby.l1_cntrl9.requestFromCache.avg_buf_msgs   591.014649                       # Average number of messages in buffer
system.ruby.l1_cntrl9.requestFromCache.avg_stall_time  6671.782661                       # Average number of cycles messages are stalled in this MB
system.ruby.latency_hist_seqr::bucket_size            1                      
system.ruby.latency_hist_seqr::max_bucket            9                      
system.ruby.latency_hist_seqr::samples          76473                      
system.ruby.latency_hist_seqr::mean          0.000602                      
system.ruby.latency_hist_seqr::stdev         0.024519                      
system.ruby.latency_hist_seqr            |       76427     99.94%     99.94% |          46      0.06%    100.00% |           0      0.00%    100.00% |           0      0.00%    100.00% |           0      0.00%    100.00% |           0      0.00%    100.00% |           0      0.00%    100.00% |           0      0.00%    100.00% |           0      0.00%    100.00% |           0      0.00%    100.00%
system.ruby.latency_hist_seqr::total            76473                      
system.ruby.network.average_flit_latency  3778.393574                      
system.ruby.network.average_flit_network_latency  3737.008032                      
system.ruby.network.average_flit_queueing_latency    41.385542                      
system.ruby.network.average_flit_vnet_latency | 3737.008032                       |         nan                       |         nan                      
system.ruby.network.average_flit_vqueue_latency |   41.385542                       |         nan                       |         nan                      
system.ruby.network.average_hops             2.610442                      
system.ruby.network.average_packet_latency  3778.393574                      
system.ruby.network.average_packet_network_latency  3737.008032                      
system.ruby.network.average_packet_queueing_latency    41.385542                      
system.ruby.network.average_packet_vnet_latency | 3737.008032                       |         nan                       |         nan                      
system.ruby.network.average_packet_vqueue_latency |   41.385542                       |         nan                       |         nan                      
system.ruby.network.avg_link_utilization     0.597750                      
system.ruby.network.avg_vc_load          |    0.172750     28.90%     28.90% |    0.157750     26.39%     55.29% |    0.141750     23.71%     79.00% |    0.125500     21.00%    100.00% |           0      0.00%    100.00% |           0      0.00%    100.00% |           0      0.00%    100.00% |           0      0.00%    100.00% |           0      0.00%    100.00% |           0      0.00%    100.00% |           0      0.00%    100.00% |           0      0.00%    100.00%
system.ruby.network.avg_vc_load::total       0.597750                      
system.ruby.network.ext_in_link_utilization          882                      
system.ruby.network.ext_out_link_utilization          249                      
system.ruby.network.flit_network_latency |      930515                       |           0                       |           0                      
system.ruby.network.flit_queueing_latency |       10305                       |           0                       |           0                      
system.ruby.network.flits_injected       |         882    100.00%    100.00% |           0      0.00%    100.00% |           0      0.00%    100.00%
system.ruby.network.flits_injected::total          882                      
system.ruby.network.flits_received       |         249    100.00%    100.00% |           0      0.00%    100.00% |           0      0.00%    100.00%
system.ruby.network.flits_received::total          249                      
system.ruby.network.int_link_utilization         1260                      
system.ruby.network.packet_network_latency |      930515                       |           0                       |           0                      
system.ruby.network.packet_queueing_latency |       10305                       |           0                       |           0                      
system.ruby.network.packets_injected     |         882    100.00%    100.00% |           0      0.00%    100.00% |           0      0.00%    100.00%
system.ruby.network.packets_injected::total          882                      
system.ruby.network.packets_received     |         249    100.00%    100.00% |           0      0.00%    100.00% |           0      0.00%    100.00%
system.ruby.network.packets_received::total          249                      
system.ruby.network.routers00.buffer_reads           14                      
system.ruby.network.routers00.buffer_writes           14                      
system.ruby.network.routers00.crossbar_activity           10                      
system.ruby.network.routers00.sw_input_arbiter_activity           10                      
system.ruby.network.routers00.sw_output_arbiter_activity           10                      
system.ruby.network.routers01.buffer_reads           13                      
system.ruby.network.routers01.buffer_writes           13                      
system.ruby.network.routers01.crossbar_activity            9                      
system.ruby.network.routers01.sw_input_arbiter_activity            9                      
system.ruby.network.routers01.sw_output_arbiter_activity            9                      
system.ruby.network.routers02.buffer_reads           14                      
system.ruby.network.routers02.buffer_writes           14                      
system.ruby.network.routers02.crossbar_activity           10                      
system.ruby.network.routers02.sw_input_arbiter_activity           10                      
system.ruby.network.routers02.sw_output_arbiter_activity           10                      
system.ruby.network.routers03.buffer_reads           12                      
system.ruby.network.routers03.buffer_writes           12                      
system.ruby.network.routers03.crossbar_activity            8                      
system.ruby.network.routers03.sw_input_arbiter_activity            8                      
system.ruby.network.routers03.sw_output_arbiter_activity            8                      
system.ruby.network.routers04.buffer_reads           12                      
system.ruby.network.routers04.buffer_writes           12                      
system.ruby.network.routers04.crossbar_activity            8                      
system.ruby.network.routers04.sw_input_arbiter_activity            8                      
system.ruby.network.routers04.sw_output_arbiter_activity            8                      
system.ruby.network.routers05.buffer_reads           13                      
system.ruby.network.routers05.buffer_writes           13                      
system.ruby.network.routers05.crossbar_activity            9                      
system.ruby.network.routers05.sw_input_arbiter_activity            9                      
system.ruby.network.routers05.sw_output_arbiter_activity            9                      
system.ruby.network.routers06.buffer_reads           13                      
system.ruby.network.routers06.buffer_writes           13                      
system.ruby.network.routers06.crossbar_activity            9                      
system.ruby.network.routers06.sw_input_arbiter_activity            9                      
system.ruby.network.routers06.sw_output_arbiter_activity            9                      
system.ruby.network.routers07.buffer_reads           17                      
system.ruby.network.routers07.buffer_writes           17                      
system.ruby.network.routers07.crossbar_activity           13                      
system.ruby.network.routers07.sw_input_arbiter_activity           13                      
system.ruby.network.routers07.sw_output_arbiter_activity           13                      
system.ruby.network.routers08.buffer_reads           12                      
system.ruby.network.routers08.buffer_writes           12                      
system.ruby.network.routers08.crossbar_activity            8                      
system.ruby.network.routers08.sw_input_arbiter_activity            8                      
system.ruby.network.routers08.sw_output_arbiter_activity            8                      
system.ruby.network.routers09.buffer_reads           17                      
system.ruby.network.routers09.buffer_writes           17                      
system.ruby.network.routers09.crossbar_activity           13                      
system.ruby.network.routers09.sw_input_arbiter_activity           17                      
[...]
system.ruby.network.ext_links64.network_links0.power_state.pwrStateResidencyTicks::UNDEFINED        20000                       # Cumulative time (in ticks) in various power states
system.ruby.network.ext_links64.network_links1.power_state.pwrStateResidencyTicks::UNDEFINED        20000                       # Cumulative time (in ticks) in various power states
system.ruby.network.ext_links64.ext_net_bridge0.power_state.pwrStateResidencyTicks::UNDEFINED        20000                       # Cumulative time (in ticks) in various power states
system.ruby.network.ext_links64.ext_net_bridge1.power_state.pwrStateResidencyTicks::UNDEFINED        20000                       # Cumulative time (in ticks) in various power states
system.ruby.network.ext_links64.ext_cred_bridge0.power_state.pwrStateResidencyTicks::UNDEFINED        20000                       # Cumulative time (in ticks) in various power states
system.ruby.network.ext_links64.ext_cred_bridge1.power_state.pwrStateResidencyTicks::UNDEFINED        20000                       # Cumulative time (in ticks) in various power states
system.ruby.network.ext_links64.int_cred_bridge0.power_state.pwrStateResidencyTicks::UNDEFINED        20000                       # Cumulative time (in ticks) in various power states
system.ruby.network.ext_links64.int_cred_bridge1.power_state.pwrStateResidencyTicks::UNDEFINED        20000                       # Cumulative time (in ticks) in various power states
system.ruby.network.ext_links65.int_net_bridge0.power_state.pwrStateResidencyTicks::UNDEFINED        20000                       # Cumulative time (in ticks) in various power states
system.ruby.network.ext_links65.int_net_bridge1.power_state.pwrStateResidencyTicks::UNDEFINED        20000                       # Cumulative time (in ticks) in various power states
system.ruby.network.ext_links65.credit_links0.power_state.pwrStateResidencyTicks::UNDEFINED        20000                       # Cumulative time (in ticks) in various power states
system.ruby.network.ext_links65.credit_links1.power_state.pwrStateResidencyTicks::UNDEFINED        20000                       # Cumulative time (in ticks) in various power states
system.ruby.network.ext_links65.network_links0.power_state.pwrStateResidencyTicks::UNDEFINED        20000                       # Cumulative time (in ticks) in various power states
system.ruby.network.ext_links65.network_links1.power_state.pwrStateResidencyTicks::UNDEFINED        20000                       # Cumulative time (in ticks) in various power states
system.ruby.network.ext_links65.ext_net_bridge0.power_state.pwrStateResidencyTicks::UNDEFINED        20000                       # Cumulative time (in ticks) in various power states
system.ruby.network.ext_links65.ext_net_bridge1.power_state.pwrStateResidencyTicks::UNDEFINED        20000                       # Cumulative time (in ticks) in various power states
system.ruby.network.ext_links65.ext_cred_bridge0.power_state.pwrStateResidencyTicks::UNDEFINED        20000                       # Cumulative time (in ticks) in various power states
system.ruby.network.ext_links65.ext_cred_bridge1.power_state.pwrStateResidencyTicks::UNDEFINED        20000                       # Cumulative time (in ticks) in various power states
system.ruby.network.ext_links65.int_cred_bridge0.power_state.pwrStateResidencyTicks::UNDEFINED        20000                       # Cumulative time (in ticks) in various power states
system.ruby.network.ext_links65.int_cred_bridge1.power_state.pwrStateResidencyTicks::UNDEFINED        20000                       # Cumulative time (in ticks) in various power states
system.ruby.network.ext_links68.int_net_bridge0.power_state.pwrStateResidencyTicks::UNDEFINED        20000                       # Cumulative time (in ticks) in various power states
system.ruby.network.ext_links68.int_net_bridge1.power_state.pwrStateResidencyTicks::UNDEFINED        20000                       # Cumulative time (in ticks) in various power states
system.ruby.network.ext_links68.credit_links0.power_state.pwrStateResidencyTicks::UNDEFINED        20000                       # Cumulative time (in ticks) in various power states
system.ruby.network.ext_links68.credit_links1.power_state.pwrStateResidencyTicks::UNDEFINED        20000                       # Cumulative time (in ticks) in various power states
system.ruby.network.ext_links68.network_links0.power_state.pwrStateResidencyTicks::UNDEFINED        20000                       # Cumulative time (in ticks) in various power states
system.ruby.network.ext_links68.network_links1.power_state.pwrStateResidencyTicks::UNDEFINED        20000                       # Cumulative time (in ticks) in various power states
system.ruby.network.ext_links68.ext_net_bridge0.power_state.pwrStateResidencyTicks::UNDEFINED        20000                       # Cumulative time (in ticks) in various power states
system.ruby.network.ext_links68.ext_net_bridge1.power_state.pwrStateResidencyTicks::UNDEFINED        20000                       # Cumulative time (in ticks) in various power states
system.ruby.network.ext_links68.ext_cred_bridge0.power_state.pwrStateResidencyTicks::UNDEFINED        20000                       # Cumulative time (in ticks) in various power states
system.ruby.network.ext_links68.ext_cred_bridge1.power_state.pwrStateResidencyTicks::UNDEFINED        20000                       # Cumulative time (in ticks) in various power states
system.ruby.network.ext_links68.int_cred_bridge0.power_state.pwrStateResidencyTicks::UNDEFINED        20000                       # Cumulative time (in ticks) in various power states
system.ruby.network.ext_links68.int_cred_bridge1.power_state.pwrStateResidencyTicks::UNDEFINED        20000                       # Cumulative time (in ticks) in various power states
system.ruby.network.ext_links69.int_net_bridge0.power_state.pwrStateResidencyTicks::UNDEFINED        20000                       # Cumulative time (in ticks) in various power states
system.ruby.network.ext_links69.int_net_bridge1.power_state.pwrStateResidencyTicks::UNDEFINED        20000                       # Cumulative time (in ticks) in various power states
system.ruby.network.ext_links69.credit_links0.power_state.pwrStateResidencyTicks::UNDEFINED        20000                       # Cumulative time (in ticks) in various power states
system.ruby.network.ext_links69.credit_links1.power_state.pwrStateResidencyTicks::UNDEFINED        20000                       # Cumulative time (in ticks) in various power states
system.ruby.network.ext_links69.network_links0.power_state.pwrStateResidencyTicks::UNDEFINED        20000                       # Cumulative time (in ticks) in various power states
system.ruby.network.ext_links69.network_links1.power_state.pwrStateResidencyTicks::UNDEFINED        20000                       # Cumulative time (in ticks) in various power states
system.ruby.network.ext_links69.ext_net_bridge0.power_state.pwrStateResidencyTicks::UNDEFINED        20000                       # Cumulative time (in ticks) in various power states
system.ruby.network.ext_links69.ext_net_bridge1.power_state.pwrStateResidencyTicks::UNDEFINED        20000                       # Cumulative time (in ticks) in various power states
system.ruby.network.ext_links69.ext_cred_bridge0.power_state.pwrStateResidencyTicks::UNDEFINED        20000                       # Cumulative time (in ticks) in various power states
system.ruby.network.ext_links69.ext_cred_bridge1.power_state.pwrStateResidencyTicks::UNDEFINED        20000                       # Cumulative time (in ticks) in various power states
system.ruby.network.ext_links69.int_cred_bridge0.power_state.pwrStateResidencyTicks::UNDEFINED        20000                       # Cumulative time (in ticks) in various power states
system.ruby.network.ext_links69.int_cred_bridge1.power_state.pwrStateResidencyTicks::UNDEFINED        20000                       # Cumulative time (in ticks) in various power states
system.ruby.network.netifs29.power_state.pwrStateResidencyTicks::UNDEFINED        20000                       # Cumulative time (in ticks) in various power states
system.ruby.network.netifs28.power_state.pwrStateResidencyTicks::UNDEFINED        20000                       # Cumulative time (in ticks) in various power states
system.ruby.network.int_links349.src_net_bridge.power_state.pwrStateResidencyTicks::UNDEFINED        20000                       # Cumulative time (in ticks) in various power states
system.ruby.network.int_links349.src_cred_bridge.power_state.pwrStateResidencyTicks::UNDEFINED        20000                       # Cumulative time (in ticks) in various power states
system.ruby.network.int_links349.credit_link.power_state.pwrStateResidencyTicks::UNDEFINED        20000                       # Cumulative time (in ticks) in various power states
system.ruby.network.int_links349.dst_net_bridge.power_state.pwrStateResidencyTicks::UNDEFINED        20000                       # Cumulative time (in ticks) in various power states
system.ruby.network.int_links349.dst_cred_bridge.power_state.pwrStateResidencyTicks::UNDEFINED        20000                       # Cumulative time (in ticks) in various power states
system.ruby.network.int_links349.network_link.power_state.pwrStateResidencyTicks::UNDEFINED        20000                       # Cumulative time (in ticks) in various power states
system.ruby.network.netifs21.power_state.pwrStateResidencyTicks::UNDEFINED        20000                       # Cumulative time (in ticks) in various power states
system.ruby.network.netifs20.power_state.pwrStateResidencyTicks::UNDEFINED        20000                       # Cumulative time (in ticks) in various power states
system.ruby.network.netifs23.power_state.pwrStateResidencyTicks::UNDEFINED        20000                       # Cumulative time (in ticks) in various power states
system.ruby.network.netifs22.power_state.pwrStateResidencyTicks::UNDEFINED        20000                       # Cumulative time (in ticks) in various power states
system.ruby.network.netifs25.power_state.pwrStateResidencyTicks::UNDEFINED        20000                       # Cumulative time (in ticks) in various power states
system.ruby.network.netifs24.power_state.pwrStateResidencyTicks::UNDEFINED        20000                       # Cumulative time (in ticks) in various power states
system.ruby.network.netifs27.power_state.pwrStateResidencyTicks::UNDEFINED        20000                       # Cumulative time (in ticks) in various power states
system.ruby.network.netifs26.power_state.pwrStateResidencyTicks::UNDEFINED        20000                       # Cumulative time (in ticks) in various power states
system.ruby.network.routers39.power_state.pwrStateResidencyTicks::UNDEFINED        20000                       # Cumulative time (in ticks) in various power states
system.ruby.dir_cntrl15.power_state.pwrStateResidencyTicks::UNDEFINED        20000                       # Cumulative time (in ticks) in various power states
system.ruby.dir_cntrl14.power_state.pwrStateResidencyTicks::UNDEFINED        20000                       # Cumulative time (in ticks) in various power states
system.ruby.dir_cntrl13.power_state.pwrStateResidencyTicks::UNDEFINED        20000                       # Cumulative time (in ticks) in various power states
system.ruby.dir_cntrl12.power_state.pwrStateResidencyTicks::UNDEFINED        20000                       # Cumulative time (in ticks) in various power states
system.ruby.dir_cntrl11.power_state.pwrStateResidencyTicks::UNDEFINED        20000                       # Cumulative time (in ticks) in various power states
system.ruby.dir_cntrl10.power_state.pwrStateResidencyTicks::UNDEFINED        20000                       # Cumulative time (in ticks) in various power states
system.ruby.l1_cntrl9.sequencer.power_state.pwrStateResidencyTicks::UNDEFINED        20000                       # Cumulative time (in ticks) in various power states
system.ruby.l1_cntrl9.power_state.pwrStateResidencyTicks::UNDEFINED        20000                       # Cumulative time (in ticks) in various power states
system.ruby.l1_cntrl59.sequencer.power_state.pwrStateResidencyTicks::UNDEFINED        20000                       # Cumulative time (in ticks) in various power states
system.ruby.l1_cntrl59.power_state.pwrStateResidencyTicks::UNDEFINED        20000                       # Cumulative time (in ticks) in various power states
system.ruby.l1_cntrl36.sequencer.power_state.pwrStateResidencyTicks::UNDEFINED        20000                       # Cumulative time (in ticks) in various power states
system.ruby.l1_cntrl36.power_state.pwrStateResidencyTicks::UNDEFINED        20000                       # Cumulative time (in ticks) in various power states
system.ruby.l1_cntrl27.sequencer.power_state.pwrStateResidencyTicks::UNDEFINED        20000                       # Cumulative time (in ticks) in various power states
system.ruby.l1_cntrl27.power_state.pwrStateResidencyTicks::UNDEFINED        20000                       # Cumulative time (in ticks) in various power states
system.ruby.l1_cntrl26.sequencer.power_state.pwrStateResidencyTicks::UNDEFINED        20000                       # Cumulative time (in ticks) in various power states
system.ruby.l1_cntrl26.power_state.pwrStateResidencyTicks::UNDEFINED        20000                       # Cumulative time (in ticks) in various power states
system.ruby.l1_cntrl25.sequencer.power_state.pwrStateResidencyTicks::UNDEFINED        20000                       # Cumulative time (in ticks) in various power states
system.ruby.l1_cntrl25.power_state.pwrStateResidencyTicks::UNDEFINED        20000                       # Cumulative time (in ticks) in various power states
system.ruby.l1_cntrl24.sequencer.power_state.pwrStateResidencyTicks::UNDEFINED        20000                       # Cumulative time (in ticks) in various power states
system.ruby.l1_cntrl24.power_state.pwrStateResidencyTicks::UNDEFINED        20000                       # Cumulative time (in ticks) in various power states
system.ruby.l1_cntrl23.sequencer.power_state.pwrStateResidencyTicks::UNDEFINED        20000                       # Cumulative time (in ticks) in various power states
system.ruby.l1_cntrl23.power_state.pwrStateResidencyTicks::UNDEFINED        20000                       # Cumulative time (in ticks) in various power states
system.ruby.l1_cntrl22.sequencer.power_state.pwrStateResidencyTicks::UNDEFINED        20000                       # Cumulative time (in ticks) in various power states
system.ruby.l1_cntrl22.power_state.pwrStateResidencyTicks::UNDEFINED        20000                       # Cumulative time (in ticks) in various power states
system.ruby.dir_cntrl9.power_state.pwrStateResidencyTicks::UNDEFINED        20000                       # Cumulative time (in ticks) in various power states
system.ruby.dir_cntrl8.power_state.pwrStateResidencyTicks::UNDEFINED        20000                       # Cumulative time (in ticks) in various power states
system.ruby.dir_cntrl7.power_state.pwrStateResidencyTicks::UNDEFINED        20000                       # Cumulative time (in ticks) in various power states
system.ruby.dir_cntrl6.power_state.pwrStateResidencyTicks::UNDEFINED        20000                       # Cumulative time (in ticks) in various power states
system.ruby.dir_cntrl5.power_state.pwrStateResidencyTicks::UNDEFINED        20000                       # Cumulative time (in ticks) in various power states
system.ruby.dir_cntrl4.power_state.pwrStateResidencyTicks::UNDEFINED        20000                       # Cumulative time (in ticks) in various power states
system.ruby.dir_cntrl3.power_state.pwrStateResidencyTicks::UNDEFINED        20000                       # Cumulative time (in ticks) in various power states
system.ruby.dir_cntrl2.power_state.pwrStateResidencyTicks::UNDEFINED        20000                       # Cumulative time (in ticks) in various power states
system.ruby.dir_cntrl1.power_state.pwrStateResidencyTicks::UNDEFINED        20000                       # Cumulative time (in ticks) in various power states
system.ruby.dir_cntrl0.power_state.pwrStateResidencyTicks::UNDEFINED        20000                       # Cumulative time (in ticks) in various power states
system.cpu42.power_state.pwrStateResidencyTicks::UNDEFINED        20000                       # Cumulative time (in ticks) in various power states
system.cpu41.power_state.pwrStateResidencyTicks::UNDEFINED        20000                       # Cumulative time (in ticks) in various power states
system.cpu40.power_state.pwrStateResidencyTicks::UNDEFINED        20000                       # Cumulative time (in ticks) in various power states
system.cpu58.power_state.pwrStateResidencyTicks::UNDEFINED        20000                       # Cumulative time (in ticks) in various power states
system.cpu59.power_state.pwrStateResidencyTicks::UNDEFINED        20000                       # Cumulative time (in ticks) in various power states
system.cpu50.power_state.pwrStateResidencyTicks::UNDEFINED        20000                       # Cumulative time (in ticks) in various power states
system.cpu51.power_state.pwrStateResidencyTicks::UNDEFINED        20000                       # Cumulative time (in ticks) in various power states
system.cpu52.power_state.pwrStateResidencyTicks::UNDEFINED        20000                       # Cumulative time (in ticks) in various power states
system.cpu53.power_state.pwrStateResidencyTicks::UNDEFINED        20000                       # Cumulative time (in ticks) in various power states
system.cpu54.power_state.pwrStateResidencyTicks::UNDEFINED        20000                       # Cumulative time (in ticks) in various power states
system.cpu55.power_state.pwrStateResidencyTicks::UNDEFINED        20000                       # Cumulative time (in ticks) in various power states
system.cpu56.power_state.pwrStateResidencyTicks::UNDEFINED        20000                       # Cumulative time (in ticks) in various power states
system.cpu57.power_state.pwrStateResidencyTicks::UNDEFINED        20000                       # Cumulative time (in ticks) in various power states
system.clk_domain.clock                            10                       # Clock period in ticks
system.cpu29.power_state.pwrStateResidencyTicks::UNDEFINED        20000                       # Cumulative time (in ticks) in various power states
system.cpu28.power_state.pwrStateResidencyTicks::UNDEFINED        20000                       # Cumulative time (in ticks) in various power states
system.cpu25.power_state.pwrStateResidencyTicks::UNDEFINED        20000                       # Cumulative time (in ticks) in various power states
system.cpu24.power_state.pwrStateResidencyTicks::UNDEFINED        20000                       # Cumulative time (in ticks) in various power states
system.cpu27.power_state.pwrStateResidencyTicks::UNDEFINED        20000                       # Cumulative time (in ticks) in various power states
system.cpu26.power_state.pwrStateResidencyTicks::UNDEFINED        20000                       # Cumulative time (in ticks) in various power states
system.cpu21.power_state.pwrStateResidencyTicks::UNDEFINED        20000                       # Cumulative time (in ticks) in various power states
system.cpu20.power_state.pwrStateResidencyTicks::UNDEFINED        20000                       # Cumulative time (in ticks) in various power states
system.cpu23.power_state.pwrStateResidencyTicks::UNDEFINED        20000                       # Cumulative time (in ticks) in various power states
system.cpu22.power_state.pwrStateResidencyTicks::UNDEFINED        20000                       # Cumulative time (in ticks) in various power states

---------- End Simulation Statistics   ----------
