
---------- Begin Simulation Statistics ----------
final_tick                                     100080                       # Number of ticks from beginning of simulation (restored from checkpoints and never reset)
host_mem_usage                                 882912                       # Number of bytes of host memory used
host_seconds                                     1.06                       # Real time elapsed on the host
host_tick_rate                                  94619                       # Simulator tick rate (ticks/s)
sim_freq                                 1000000000000                       # Frequency of simulated ticks
sim_seconds                                  0.000000                       # Number of seconds simulated
sim_ticks                                      100080                       # Number of ticks simulated
system.ruby.Directory_Controller.I.Receive_Forward |          14      1.59%      1.59% |          21      2.39%      3.98% |          11      1.25%      5.23% |          17      1.93%      7.17% |          14      1.59%      8.76% |          16      1.82%     10.58% |          19      2.16%     12.74% |          16      1.82%     14.56% |          15      1.71%     16.27% |          17      1.93%     18.20% |          15      1.71%     19.91% |          11      1.25%     21.16% |          16      1.82%     22.98% |           7      0.80%     23.78% |          19      2.16%     25.94% |          11      1.25%     27.19% |          18      2.05%     29.24% |          11      1.25%     30.49% |          15      1.71%     32.20% |          14      1.59%     33.79% |          15      1.71%     35.49% |           8      0.91%     36.41% |          10      1.14%     37.54% |          13      1.48%     39.02% |          11      1.25%     40.27% |          17      1.93%     42.21% |          12      1.37%     43.57% |          10      1.14%     44.71% |          10      1.14%     45.85% |          11      1.25%     47.10% |          19      2.16%     49.26% |          12      1.37%     50.63% |          17      1.93%     52.56% |          11      1.25%     53.81% |           7      0.80%     54.61% |          11      1.25%     55.86% |           7      0.80%     56.66% |          13      1.48%     58.13% |          15      1.71%     59.84% |          18      2.05%     61.89% |           7      0.80%     62.68% |          12      1.37%     64.05% |           7      0.80%     64.85% |          12      1.37%     66.21% |          11      1.25%     67.46% |          10      1.14%     68.60% |          15      1.71%     70.31% |          15      1.71%     72.01% |          20      2.28%     74.29% |          14      1.59%     75.88% |          15      1.71%     77.59% |          19      2.16%     79.75% |          16      1.82%     81.57% |          15      1.71%     83.28% |          16      1.82%     85.10% |           9      1.02%     86.12% |          15      1.71%     87.83% |          20      2.28%     90.10% |          12      1.37%     91.47% |          12      1.37%     92.83% |          16      1.82%     94.65% |          17      1.93%     96.59% |          16      1.82%     98.41% |          14      1.59%    100.00%
system.ruby.Directory_Controller.I.Receive_Forward::total          879                      
system.ruby.Directory_Controller.I.Receive_Request |          14      1.50%      1.50% |          13      1.39%      2.90% |          20      2.15%      5.04% |          15      1.61%      6.65% |          19      2.04%      8.69% |          12      1.29%      9.98% |          13      1.39%     11.37% |          19      2.04%     13.41% |          11      1.18%     14.59% |          13      1.39%     15.99% |           8      0.86%     16.85% |          14      1.50%     18.35% |          18      1.93%     20.28% |          14      1.50%     21.78% |          15      1.61%     23.39% |          11      1.18%     24.57% |          10      1.07%     25.64% |          22      2.36%     28.00% |          14      1.50%     29.51% |          14      1.50%     31.01% |          15      1.61%     32.62% |          12      1.29%     33.91% |          12      1.29%     35.19% |          18      1.93%     37.12% |          15      1.61%     38.73% |          17      1.82%     40.56% |          13      1.39%     41.95% |           6      0.64%     42.60% |          23      2.47%     45.06% |          16      1.72%     46.78% |          16      1.72%     48.50% |          16      1.72%     50.21% |          14      1.50%     51.72% |          19      2.04%     53.76% |           9      0.97%     54.72% |          14      1.50%     56.22% |          10      1.07%     57.30% |          14      1.50%     58.80% |          21      2.25%     61.05% |          11      1.18%     62.23% |          11      1.18%     63.41% |          14      1.50%     64.91% |          15      1.61%     66.52% |          11      1.18%     67.70% |          10      1.07%     68.78% |           7      0.75%     69.53% |          11      1.18%     70.71% |          22      2.36%     73.07% |          18      1.93%     75.00% |          26      2.79%     77.79% |          20      2.15%     79.94% |          15      1.61%     81.55% |          21      2.25%     83.80% |           9      0.97%     84.76% |           9      0.97%     85.73% |          17      1.82%     87.55% |          12      1.29%     88.84% |          12      1.29%     90.13% |          16      1.72%     91.85% |          17      1.82%     93.67% |          18      1.93%     95.60% |          15      1.61%     97.21% |          12      1.29%     98.50% |          14      1.50%    100.00%
system.ruby.Directory_Controller.I.Receive_Request::total          932                      
system.ruby.Directory_Controller.I.Receive_Response |           4      1.52%      1.52% |           3      1.14%      2.66% |           1      0.38%      3.04% |           6      2.28%      5.32% |           8      3.04%      8.37% |           7      2.66%     11.03% |           1      0.38%     11.41% |           5      1.90%     13.31% |           8      3.04%     16.35% |           5      1.90%     18.25% |           5      1.90%     20.15% |           4      1.52%     21.67% |           7      2.66%     24.33% |           3      1.14%     25.48% |           5      1.90%     27.38% |           7      2.66%     30.04% |           2      0.76%     30.80% |           7      2.66%     33.46% |           5      1.90%     35.36% |           4      1.52%     36.88% |           6      2.28%     39.16% |           2      0.76%     39.92% |           3      1.14%     41.06% |           3      1.14%     42.21% |           3      1.14%     43.35% |           7      2.66%     46.01% |           2      0.76%     46.77% |           8      3.04%     49.81% |           2      0.76%     50.57% |           1      0.38%     50.95% |           2      0.76%     51.71% |           5      1.90%     53.61% |           4      1.52%     55.13% |           1      0.38%     55.51% |           1      0.38%     55.89% |           6      2.28%     58.17% |           3      1.14%     59.32% |           4      1.52%     60.84% |           7      2.66%     63.50% |           5      1.90%     65.40% |           2      0.76%     66.16% |           3      1.14%     67.30% |           4      1.52%     68.82% |           2      0.76%     69.58% |           3      1.14%     70.72% |           5      1.90%     72.62% |           6      2.28%     74.90% |           4      1.52%     76.43% |           3      1.14%     77.57% |           5      1.90%     79.47% |           3      1.14%     80.61% |           7      2.66%     83.27% |           4      1.52%     84.79% |           5      1.90%     86.69% |           7      2.66%     89.35% |           1      0.38%     89.73% |           2      0.76%     90.49% |           3      1.14%     91.63% |           2      0.76%     92.40% |           5      1.90%     94.30% |           2      0.76%     95.06% |           2      0.76%     95.82% |           4      1.52%     97.34% |           7      2.66%    100.00%
system.ruby.Directory_Controller.I.Receive_Response::total          263                      
system.ruby.Directory_Controller.Receive_Forward |          14      1.59%      1.59% |          21      2.39%      3.98% |          11      1.25%      5.23% |          17      1.93%      7.17% |          14      1.59%      8.76% |          16      1.82%     10.58% |          19      2.16%     12.74% |          16      1.82%     14.56% |          15      1.71%     16.27% |          17      1.93%     18.20% |          15      1.71%     19.91% |          11      1.25%     21.16% |          16      1.82%     22.98% |           7      0.80%     23.78% |          19      2.16%     25.94% |          11      1.25%     27.19% |          18      2.05%     29.24% |          11      1.25%     30.49% |          15      1.71%     32.20% |          14      1.59%     33.79% |          15      1.71%     35.49% |           8      0.91%     36.41% |          10      1.14%     37.54% |          13      1.48%     39.02% |          11      1.25%     40.27% |          17      1.93%     42.21% |          12      1.37%     43.57% |          10      1.14%     44.71% |          10      1.14%     45.85% |          11      1.25%     47.10% |          19      2.16%     49.26% |          12      1.37%     50.63% |          17      1.93%     52.56% |          11      1.25%     53.81% |           7      0.80%     54.61% |          11      1.25%     55.86% |           7      0.80%     56.66% |          13      1.48%     58.13% |          15      1.71%     59.84% |          18      2.05%     61.89% |           7      0.80%     62.68% |          12      1.37%     64.05% |           7      0.80%     64.85% |          12      1.37%     66.21% |          11      1.25%     67.46% |          10      1.14%     68.60% |          15      1.71%     70.31% |          15      1.71%     72.01% |          20      2.28%     74.29% |          14      1.59%     75.88% |          15      1.71%     77.59% |          19      2.16%     79.75% |          16      1.82%     81.57% |          15      1.71%     83.28% |          16      1.82%     85.10% |           9      1.02%     86.12% |          15      1.71%     87.83% |          20      2.28%     90.10% |          12      1.37%     91.47% |          12      1.37%     92.83% |          16      1.82%     94.65% |          17      1.93%     96.59% |          16      1.82%     98.41% |          14      1.59%    100.00%
system.ruby.Directory_Controller.Receive_Forward::total          879                      
system.ruby.Directory_Controller.Receive_Request |          14      1.50%      1.50% |          13      1.39%      2.90% |          20      2.15%      5.04% |          15      1.61%      6.65% |          19      2.04%      8.69% |          12      1.29%      9.98% |          13      1.39%     11.37% |          19      2.04%     13.41% |          11      1.18%     14.59% |          13      1.39%     15.99% |           8      0.86%     16.85% |          14      1.50%     18.35% |          18      1.93%     20.28% |          14      1.50%     21.78% |          15      1.61%     23.39% |          11      1.18%     24.57% |          10      1.07%     25.64% |          22      2.36%     28.00% |          14      1.50%     29.51% |          14      1.50%     31.01% |          15      1.61%     32.62% |          12      1.29%     33.91% |          12      1.29%     35.19% |          18      1.93%     37.12% |          15      1.61%     38.73% |          17      1.82%     40.56% |          13      1.39%     41.95% |           6      0.64%     42.60% |          23      2.47%     45.06% |          16      1.72%     46.78% |          16      1.72%     48.50% |          16      1.72%     50.21% |          14      1.50%     51.72% |          19      2.04%     53.76% |           9      0.97%     54.72% |          14      1.50%     56.22% |          10      1.07%     57.30% |          14      1.50%     58.80% |          21      2.25%     61.05% |          11      1.18%     62.23% |          11      1.18%     63.41% |          14      1.50%     64.91% |          15      1.61%     66.52% |          11      1.18%     67.70% |          10      1.07%     68.78% |           7      0.75%     69.53% |          11      1.18%     70.71% |          22      2.36%     73.07% |          18      1.93%     75.00% |          26      2.79%     77.79% |          20      2.15%     79.94% |          15      1.61%     81.55% |          21      2.25%     83.80% |           9      0.97%     84.76% |           9      0.97%     85.73% |          17      1.82%     87.55% |          12      1.29%     88.84% |          12      1.29%     90.13% |          16      1.72%     91.85% |          17      1.82%     93.67% |          18      1.93%     95.60% |          15      1.61%     97.21% |          12      1.29%     98.50% |          14      1.50%    100.00%
system.ruby.Directory_Controller.Receive_Request::total          932                      
system.ruby.Directory_Controller.Receive_Response |           4      1.52%      1.52% |           3      1.14%      2.66% |           1      0.38%      3.04% |           6      2.28%      5.32% |           8      3.04%      8.37% |           7      2.66%     11.03% |           1      0.38%     11.41% |           5      1.90%     13.31% |           8      3.04%     16.35% |           5      1.90%     18.25% |           5      1.90%     20.15% |           4      1.52%     21.67% |           7      2.66%     24.33% |           3      1.14%     25.48% |           5      1.90%     27.38% |           7      2.66%     30.04% |           2      0.76%     30.80% |           7      2.66%     33.46% |           5      1.90%     35.36% |           4      1.52%     36.88% |           6      2.28%     39.16% |           2      0.76%     39.92% |           3      1.14%     41.06% |           3      1.14%     42.21% |           3      1.14%     43.35% |           7      2.66%     46.01% |           2      0.76%     46.77% |           8      3.04%     49.81% |           2      0.76%     50.57% |           1      0.38%     50.95% |           2      0.76%     51.71% |           5      1.90%     53.61% |           4      1.52%     55.13% |           1      0.38%     55.51% |           1      0.38%     55.89% |           6      2.28%     58.17% |           3      1.14%     59.32% |           4      1.52%     60.84% |           7      2.66%     63.50% |           5      1.90%     65.40% |           2      0.76%     66.16% |           3      1.14%     67.30% |           4      1.52%     68.82% |           2      0.76%     69.58% |           3      1.14%     70.72% |           5      1.90%     72.62% |           6      2.28%     74.90% |           4      1.52%     76.43% |           3      1.14%     77.57% |           5      1.90%     79.47% |           3      1.14%     80.61% |           7      2.66%     83.27% |           4      1.52%     84.79% |           5      1.90%     86.69% |           7      2.66%     89.35% |           1      0.38%     89.73% |           2      0.76%     90.49% |           3      1.14%     91.63% |           2      0.76%     92.40% |           5      1.90%     94.30% |           2      0.76%     95.06% |           2      0.76%     95.82% |           4      1.52%     97.34% |           7      2.66%    100.00%
system.ruby.Directory_Controller.Receive_Response::total          263                      
system.ruby.IFETCH.hit_latency_hist_seqr::bucket_size            1                      
system.ruby.IFETCH.hit_latency_hist_seqr::max_bucket            9                      
system.ruby.IFETCH.hit_latency_hist_seqr::samples         1865                      
system.ruby.IFETCH.hit_latency_hist_seqr::mean     0.004826                      
system.ruby.IFETCH.hit_latency_hist_seqr::stdev     0.069318                      
system.ruby.IFETCH.hit_latency_hist_seqr |        1856     99.52%     99.52% |           9      0.48%    100.00% |           0      0.00%    100.00% |           0      0.00%    100.00% |           0      0.00%    100.00% |           0      0.00%    100.00% |           0      0.00%    100.00% |           0      0.00%    100.00% |           0      0.00%    100.00% |           0      0.00%    100.00%
system.ruby.IFETCH.hit_latency_hist_seqr::total         1865                      
system.ruby.IFETCH.latency_hist_seqr::bucket_size            1                      
system.ruby.IFETCH.latency_hist_seqr::max_bucket            9                      
system.ruby.IFETCH.latency_hist_seqr::samples         1865                      
system.ruby.IFETCH.latency_hist_seqr::mean     0.004826                      
system.ruby.IFETCH.latency_hist_seqr::stdev     0.069318                      
system.ruby.IFETCH.latency_hist_seqr     |        1856     99.52%     99.52% |           9      0.48%    100.00% |           0      0.00%    100.00% |           0      0.00%    100.00% |           0      0.00%    100.00% |           0      0.00%    100.00% |           0      0.00%    100.00% |           0      0.00%    100.00% |           0      0.00%    100.00% |           0      0.00%    100.00%
system.ruby.IFETCH.latency_hist_seqr::total         1865                      
system.ruby.L1Cache_Controller.Forward   |          24      1.29%      1.29% |          33      1.77%      3.06% |          25      1.34%      4.40% |          39      2.09%      6.49% |          31      1.66%      8.15% |          25      1.34%      9.49% |          34      1.82%     11.31% |          25      1.34%     12.65% |          32      1.72%     14.37% |          31      1.66%     16.03% |          35      1.88%     17.91% |          26      1.39%     19.30% |          19      1.02%     20.32% |          36      1.93%     22.25% |          30      1.61%     23.86% |          26      1.39%     25.25% |          18      0.97%     26.22% |          31      1.66%     27.88% |          40      2.14%     30.03% |          26      1.39%     31.42% |          27      1.45%     32.87% |          33      1.77%     34.64% |          26      1.39%     36.03% |          30      1.61%     37.64% |          21      1.13%     38.77% |          29      1.55%     40.32% |          23      1.23%     41.55% |          26      1.39%     42.95% |          34      1.82%     44.77% |          42      2.25%     47.02% |          35      1.88%     48.90% |          31      1.66%     50.56% |          23      1.23%     51.80% |          31      1.66%     53.46% |          33      1.77%     55.23% |          27      1.45%     56.68% |          26      1.39%     58.07% |          23      1.23%     59.30% |          33      1.77%     61.07% |          29      1.55%     62.63% |          31      1.66%     64.29% |          31      1.66%     65.95% |          25      1.34%     67.29% |          31      1.66%     68.95% |          29      1.55%     70.51% |          31      1.66%     72.17% |          31      1.66%     73.83% |          27      1.45%     75.28% |          27      1.45%     76.73% |          25      1.34%     78.07% |          29      1.55%     79.62% |          19      1.02%     80.64% |          24      1.29%     81.93% |          36      1.93%     83.86% |          28      1.50%     85.36% |          28      1.50%     86.86% |          25      1.34%     88.20% |          30      1.61%     89.81% |          26      1.39%     91.21% |          33      1.77%     92.98% |          39      2.09%     95.07% |          20      1.07%     96.14% |          36      1.93%     98.07% |          36      1.93%    100.00%
system.ruby.L1Cache_Controller.Forward::total         1865                      
system.ruby.L1Cache_Controller.I.Forward |          24      1.29%      1.29% |          33      1.77%      3.06% |          25      1.34%      4.40% |          39      2.09%      6.49% |          31      1.66%      8.15% |          25      1.34%      9.49% |          34      1.82%     11.31% |          25      1.34%     12.65% |          32      1.72%     14.37% |          31      1.66%     16.03% |          35      1.88%     17.91% |          26      1.39%     19.30% |          19      1.02%     20.32% |          36      1.93%     22.25% |          30      1.61%     23.86% |          26      1.39%     25.25% |          18      0.97%     26.22% |          31      1.66%     27.88% |          40      2.14%     30.03% |          26      1.39%     31.42% |          27      1.45%     32.87% |          33      1.77%     34.64% |          26      1.39%     36.03% |          30      1.61%     37.64% |          21      1.13%     38.77% |          29      1.55%     40.32% |          23      1.23%     41.55% |          26      1.39%     42.95% |          34      1.82%     44.77% |          42      2.25%     47.02% |          35      1.88%     48.90% |          31      1.66%     50.56% |          23      1.23%     51.80% |          31      1.66%     53.46% |          33      1.77%     55.23% |          27      1.45%     56.68% |          26      1.39%     58.07% |          23      1.23%     59.30% |          33      1.77%     61.07% |          29      1.55%     62.63% |          31      1.66%     64.29% |          31      1.66%     65.95% |          25      1.34%     67.29% |          31      1.66%     68.95% |          29      1.55%     70.51% |          31      1.66%     72.17% |          31      1.66%     73.83% |          27      1.45%     75.28% |          27      1.45%     76.73% |          25      1.34%     78.07% |          29      1.55%     79.62% |          19      1.02%     80.64% |          24      1.29%     81.93% |          36      1.93%     83.86% |          28      1.50%     85.36% |          28      1.50%     86.86% |          25      1.34%     88.20% |          30      1.61%     89.81% |          26      1.39%     91.21% |          33      1.77%     92.98% |          39      2.09%     95.07% |          20      1.07%     96.14% |          36      1.93%     98.07% |          36      1.93%    100.00%
system.ruby.L1Cache_Controller.I.Forward::total         1865                      
system.ruby.L1Cache_Controller.I.Request |          30      1.58%      1.58% |          27      1.43%      3.01% |          26      1.37%      4.38% |          25      1.32%      5.70% |          32      1.69%      7.39% |          25      1.32%      8.71% |          30      1.58%     10.30% |          34      1.80%     12.09% |          30      1.58%     13.67% |          31      1.64%     15.31% |          30      1.58%     16.90% |          26      1.37%     18.27% |          29      1.53%     19.80% |          30      1.58%     21.38% |          29      1.53%     22.91% |          26      1.37%     24.29% |          45      2.38%     26.66% |          29      1.53%     28.19% |          21      1.11%     29.30% |          31      1.64%     30.94% |          30      1.58%     32.52% |          28      1.48%     34.00% |          38      2.01%     36.01% |          29      1.53%     37.54% |          25      1.32%     38.86% |          28      1.48%     40.34% |          27      1.43%     41.76% |          31      1.64%     43.40% |          32      1.69%     45.09% |          27      1.43%     46.52% |          25      1.32%     47.84% |          26      1.37%     49.21% |          29      1.53%     50.74% |          25      1.32%     52.06% |          31      1.64%     53.70% |          23      1.21%     54.91% |          22      1.16%     56.07% |          27      1.43%     57.50% |          29      1.53%     59.03% |          38      2.01%     61.03% |          31      1.64%     62.67% |          34      1.80%     64.47% |          27      1.43%     65.89% |          29      1.53%     67.42% |          22      1.16%     68.59% |          38      2.01%     70.59% |          28      1.48%     72.07% |          23      1.21%     73.28% |          34      1.80%     75.08% |          32      1.69%     76.77% |          43      2.27%     79.04% |          31      1.64%     80.68% |          27      1.43%     82.10% |          35      1.85%     83.95% |          37      1.95%     85.90% |          25      1.32%     87.22% |          36      1.90%     89.12% |          35      1.85%     90.97% |          23      1.21%     92.19% |          29      1.53%     93.72% |          23      1.21%     94.93% |          42      2.22%     97.15% |          26      1.37%     98.52% |          28      1.48%    100.00%
system.ruby.L1Cache_Controller.I.Request::total         1894                      
system.ruby.L1Cache_Controller.I.Response |          35      1.83%      1.83% |          25      1.31%      3.14% |          33      1.73%      4.87% |          17      0.89%      5.76% |          32      1.68%      7.44% |          24      1.26%      8.70% |          32      1.68%     10.37% |          34      1.78%     12.15% |          27      1.41%     13.57% |          28      1.47%     15.03% |          25      1.31%     16.34% |          28      1.47%     17.81% |          33      1.73%     19.54% |          34      1.78%     21.32% |          29      1.52%     22.84% |          25      1.31%     24.15% |          30      1.57%     25.72% |          29      1.52%     27.24% |          34      1.78%     29.02% |          29      1.52%     30.54% |          32      1.68%     32.22% |          37      1.94%     34.15% |          34      1.78%     35.94% |          27      1.41%     37.35% |          36      1.89%     39.24% |          25      1.31%     40.54% |          40      2.10%     42.64% |          31      1.62%     44.26% |          24      1.26%     45.52% |          30      1.57%     47.09% |          27      1.41%     48.51% |          23      1.20%     49.71% |          35      1.83%     51.55% |          21      1.10%     52.65% |          32      1.68%     54.32% |          36      1.89%     56.21% |          33      1.73%     57.94% |          42      2.20%     60.14% |          29      1.52%     61.66% |          28      1.47%     63.12% |          26      1.36%     64.48% |          30      1.57%     66.06% |          27      1.41%     67.47% |          23      1.20%     68.67% |          23      1.20%     69.88% |          26      1.36%     71.24% |          28      1.47%     72.71% |          34      1.78%     74.49% |          28      1.47%     75.96% |          36      1.89%     77.84% |          25      1.31%     79.15% |          36      1.89%     81.04% |          27      1.41%     82.45% |          28      1.47%     83.92% |          27      1.41%     85.33% |          25      1.31%     86.64% |          37      1.94%     88.58% |          31      1.62%     90.20% |          38      1.99%     92.19% |          31      1.62%     93.82% |          24      1.26%     95.08% |          31      1.62%     96.70% |          29      1.52%     98.22% |          34      1.78%    100.00%
system.ruby.L1Cache_Controller.I.Response::total         1909                      
system.ruby.L1Cache_Controller.Request   |          30      1.58%      1.58% |          27      1.43%      3.01% |          26      1.37%      4.38% |          25      1.32%      5.70% |          32      1.69%      7.39% |          25      1.32%      8.71% |          30      1.58%     10.30% |          34      1.80%     12.09% |          30      1.58%     13.67% |          31      1.64%     15.31% |          30      1.58%     16.90% |          26      1.37%     18.27% |          29      1.53%     19.80% |          30      1.58%     21.38% |          29      1.53%     22.91% |          26      1.37%     24.29% |          45      2.38%     26.66% |          29      1.53%     28.19% |          21      1.11%     29.30% |          31      1.64%     30.94% |          30      1.58%     32.52% |          28      1.48%     34.00% |          38      2.01%     36.01% |          29      1.53%     37.54% |          25      1.32%     38.86% |          28      1.48%     40.34% |          27      1.43%     41.76% |          31      1.64%     43.40% |          32      1.69%     45.09% |          27      1.43%     46.52% |          25      1.32%     47.84% |          26      1.37%     49.21% |          29      1.53%     50.74% |          25      1.32%     52.06% |          31      1.64%     53.70% |          23      1.21%     54.91% |          22      1.16%     56.07% |          27      1.43%     57.50% |          29      1.53%     59.03% |          38      2.01%     61.03% |          31      1.64%     62.67% |          34      1.80%     64.47% |          27      1.43%     65.89% |          29      1.53%     67.42% |          22      1.16%     68.59% |          38      2.01%     70.59% |          28      1.48%     72.07% |          23      1.21%     73.28% |          34      1.80%     75.08% |          32      1.69%     76.77% |          43      2.27%     79.04% |          31      1.64%     80.68% |          27      1.43%     82.10% |          35      1.85%     83.95% |          37      1.95%     85.90% |          25      1.32%     87.22% |          36      1.90%     89.12% |          35      1.85%     90.97% |          23      1.21%     92.19% |          29      1.53%     93.72% |          23      1.21%     94.93% |          42      2.22%     97.15% |          26      1.37%     98.52% |          28      1.48%    100.00%
system.ruby.L1Cache_Controller.Request::total         1894                      
system.ruby.L1Cache_Controller.Response  |          35      1.83%      1.83% |          25      1.31%      3.14% |          33      1.73%      4.87% |          17      0.89%      5.76% |          32      1.68%      7.44% |          24      1.26%      8.70% |          32      1.68%     10.37% |          34      1.78%     12.15% |          27      1.41%     13.57% |          28      1.47%     15.03% |          25      1.31%     16.34% |          28      1.47%     17.81% |          33      1.73%     19.54% |          34      1.78%     21.32% |          29      1.52%     22.84% |          25      1.31%     24.15% |          30      1.57%     25.72% |          29      1.52%     27.24% |          34      1.78%     29.02% |          29      1.52%     30.54% |          32      1.68%     32.22% |          37      1.94%     34.15% |          34      1.78%     35.94% |          27      1.41%     37.35% |          36      1.89%     39.24% |          25      1.31%     40.54% |          40      2.10%     42.64% |          31      1.62%     44.26% |          24      1.26%     45.52% |          30      1.57%     47.09% |          27      1.41%     48.51% |          23      1.20%     49.71% |          35      1.83%     51.55% |          21      1.10%     52.65% |          32      1.68%     54.32% |          36      1.89%     56.21% |          33      1.73%     57.94% |          42      2.20%     60.14% |          29      1.52%     61.66% |          28      1.47%     63.12% |          26      1.36%     64.48% |          30      1.57%     66.06% |          27      1.41%     67.47% |          23      1.20%     68.67% |          23      1.20%     69.88% |          26      1.36%     71.24% |          28      1.47%     72.71% |          34      1.78%     74.49% |          28      1.47%     75.96% |          36      1.89%     77.84% |          25      1.31%     79.15% |          36      1.89%     81.04% |          27      1.41%     82.45% |          28      1.47%     83.92% |          27      1.41%     85.33% |          25      1.31%     86.64% |          37      1.94%     88.58% |          31      1.62%     90.20% |          38      1.99%     92.19% |          31      1.62%     93.82% |          24      1.26%     95.08% |          31      1.62%     96.70% |          29      1.52%     98.22% |          34      1.78%    100.00%
system.ruby.L1Cache_Controller.Response::total         1909                      
system.ruby.LD.hit_latency_hist_seqr::bucket_size            1                      
system.ruby.LD.hit_latency_hist_seqr::max_bucket            9                      
system.ruby.LD.hit_latency_hist_seqr::samples         1894                      
system.ruby.LD.hit_latency_hist_seqr::mean     0.005280                      
system.ruby.LD.hit_latency_hist_seqr::stdev     0.072490                      
system.ruby.LD.hit_latency_hist_seqr     |        1884     99.47%     99.47% |          10      0.53%    100.00% |           0      0.00%    100.00% |           0      0.00%    100.00% |           0      0.00%    100.00% |           0      0.00%    100.00% |           0      0.00%    100.00% |           0      0.00%    100.00% |           0      0.00%    100.00% |           0      0.00%    100.00%
system.ruby.LD.hit_latency_hist_seqr::total         1894                      
system.ruby.LD.latency_hist_seqr::bucket_size            1                      
system.ruby.LD.latency_hist_seqr::max_bucket            9                      
system.ruby.LD.latency_hist_seqr::samples         1894                      
system.ruby.LD.latency_hist_seqr::mean       0.005280                      
system.ruby.LD.latency_hist_seqr::stdev      0.072490                      
system.ruby.LD.latency_hist_seqr         |        1884     99.47%     99.47% |          10      0.53%    100.00% |           0      0.00%    100.00% |           0      0.00%    100.00% |           0      0.00%    100.00% |           0      0.00%    100.00% |           0      0.00%    100.00% |           0      0.00%    100.00% |           0      0.00%    100.00% |           0      0.00%    100.00%
system.ruby.LD.latency_hist_seqr::total          1894                      
system.ruby.ST.hit_latency_hist_seqr::bucket_size            1                      
system.ruby.ST.hit_latency_hist_seqr::max_bucket            9                      
system.ruby.ST.hit_latency_hist_seqr::samples         1909                      
system.ruby.ST.hit_latency_hist_seqr::mean     0.006286                      
system.ruby.ST.hit_latency_hist_seqr::stdev     0.079056                      
system.ruby.ST.hit_latency_hist_seqr     |        1897     99.37%     99.37% |          12      0.63%    100.00% |           0      0.00%    100.00% |           0      0.00%    100.00% |           0      0.00%    100.00% |           0      0.00%    100.00% |           0      0.00%    100.00% |           0      0.00%    100.00% |           0      0.00%    100.00% |           0      0.00%    100.00%
system.ruby.ST.hit_latency_hist_seqr::total         1909                      
system.ruby.ST.latency_hist_seqr::bucket_size            1                      
system.ruby.ST.latency_hist_seqr::max_bucket            9                      
system.ruby.ST.latency_hist_seqr::samples         1909                      
system.ruby.ST.latency_hist_seqr::mean       0.006286                      
system.ruby.ST.latency_hist_seqr::stdev      0.079056                      
system.ruby.ST.latency_hist_seqr         |        1897     99.37%     99.37% |          12      0.63%    100.00% |           0      0.00%    100.00% |           0      0.00%    100.00% |           0      0.00%    100.00% |           0      0.00%    100.00% |           0      0.00%    100.00% |           0      0.00%    100.00% |           0      0.00%    100.00% |           0      0.00%    100.00%
system.ruby.ST.latency_hist_seqr::total          1909                      
system.ruby.dir_cntrl0.forwardToDir.avg_buf_msgs     0.077777                       # Average number of messages in buffer
system.ruby.dir_cntrl0.forwardToDir.avg_stall_time 16856.314905                       # Average number of cycles messages are stalled in this MB
system.ruby.dir_cntrl0.requestToDir.avg_buf_msgs     0.077777                       # Average number of messages in buffer
system.ruby.dir_cntrl0.requestToDir.avg_stall_time 11898.481110                       # Average number of cycles messages are stalled in this MB
system.ruby.dir_cntrl0.responseToDir.avg_buf_msgs     0.022222                       # Average number of messages in buffer
system.ruby.dir_cntrl0.responseToDir.avg_stall_time 16531.840369                       # Average number of cycles messages are stalled in this MB
system.ruby.dir_cntrl1.forwardToDir.avg_buf_msgs     0.116666                       # Average number of messages in buffer
system.ruby.dir_cntrl1.forwardToDir.avg_stall_time 23043.447528                       # Average number of cycles messages are stalled in this MB
system.ruby.dir_cntrl1.requestToDir.avg_buf_msgs     0.072222                       # Average number of messages in buffer
system.ruby.dir_cntrl1.requestToDir.avg_stall_time 23488.148640                       # Average number of cycles messages are stalled in this MB
system.ruby.dir_cntrl1.responseToDir.avg_buf_msgs     0.016667                       # Average number of messages in buffer
system.ruby.dir_cntrl1.responseToDir.avg_stall_time 30564.727930                       # Average number of cycles messages are stalled in this MB
system.ruby.dir_cntrl10.forwardToDir.avg_buf_msgs     0.083333                       # Average number of messages in buffer
system.ruby.dir_cntrl10.forwardToDir.avg_stall_time 19802.796575                       # Average number of cycles messages are stalled in this MB
system.ruby.dir_cntrl10.requestToDir.avg_buf_msgs     0.044444                       # Average number of messages in buffer
system.ruby.dir_cntrl10.requestToDir.avg_stall_time 13189.712653                       # Average number of cycles messages are stalled in this MB
system.ruby.dir_cntrl10.responseToDir.avg_buf_msgs     0.027778                       # Average number of messages in buffer
system.ruby.dir_cntrl10.responseToDir.avg_stall_time 31800.404472                       # Average number of cycles messages are stalled in this MB
system.ruby.dir_cntrl11.forwardToDir.avg_buf_msgs     0.061111                       # Average number of messages in buffer
system.ruby.dir_cntrl11.forwardToDir.avg_stall_time 12726.645058                       # Average number of cycles messages are stalled in this MB
system.ruby.dir_cntrl11.requestToDir.avg_buf_msgs     0.077777                       # Average number of messages in buffer
system.ruby.dir_cntrl11.requestToDir.avg_stall_time 15805.858734                       # Average number of cycles messages are stalled in this MB
system.ruby.dir_cntrl11.responseToDir.avg_buf_msgs     0.022222                       # Average number of messages in buffer
system.ruby.dir_cntrl11.responseToDir.avg_stall_time 32313.216015                       # Average number of cycles messages are stalled in this MB
system.ruby.dir_cntrl12.forwardToDir.avg_buf_msgs     0.088888                       # Average number of messages in buffer
system.ruby.dir_cntrl12.forwardToDir.avg_stall_time 17270.121881                       # Average number of cycles messages are stalled in this MB
system.ruby.dir_cntrl12.requestToDir.avg_buf_msgs     0.099999                       # Average number of messages in buffer
system.ruby.dir_cntrl12.requestToDir.avg_stall_time 11299.248209                       # Average number of cycles messages are stalled in this MB
system.ruby.dir_cntrl12.responseToDir.avg_buf_msgs     0.038889                       # Average number of messages in buffer
system.ruby.dir_cntrl12.responseToDir.avg_stall_time 26957.036201                       # Average number of cycles messages are stalled in this MB
system.ruby.dir_cntrl13.forwardToDir.avg_buf_msgs     0.038889                       # Average number of messages in buffer
system.ruby.dir_cntrl13.forwardToDir.avg_stall_time 14567.309999                       # Average number of cycles messages are stalled in this MB
system.ruby.dir_cntrl13.requestToDir.avg_buf_msgs     0.077777                       # Average number of messages in buffer
system.ruby.dir_cntrl13.requestToDir.avg_stall_time 15589.577562                       # Average number of cycles messages are stalled in this MB
system.ruby.dir_cntrl13.responseToDir.avg_buf_msgs     0.016667                       # Average number of messages in buffer
system.ruby.dir_cntrl13.responseToDir.avg_stall_time 21857.098270                       # Average number of cycles messages are stalled in this MB
system.ruby.dir_cntrl14.forwardToDir.avg_buf_msgs     0.105555                       # Average number of messages in buffer
system.ruby.dir_cntrl14.forwardToDir.avg_stall_time 10347.841049                       # Average number of cycles messages are stalled in this MB
system.ruby.dir_cntrl14.requestToDir.avg_buf_msgs     0.083333                       # Average number of messages in buffer
system.ruby.dir_cntrl14.requestToDir.avg_stall_time 14360.356511                       # Average number of cycles messages are stalled in this MB
system.ruby.dir_cntrl14.responseToDir.avg_buf_msgs     0.027778                       # Average number of messages in buffer
system.ruby.dir_cntrl14.responseToDir.avg_stall_time 25072.860583                       # Average number of cycles messages are stalled in this MB
system.ruby.dir_cntrl15.forwardToDir.avg_buf_msgs     0.061120                       # Average number of messages in buffer
system.ruby.dir_cntrl15.forwardToDir.avg_stall_time 14900.834444                       # Average number of cycles messages are stalled in this MB
system.ruby.dir_cntrl15.requestToDir.avg_buf_msgs     0.061111                       # Average number of messages in buffer
system.ruby.dir_cntrl15.requestToDir.avg_stall_time 13612.941757                       # Average number of cycles messages are stalled in this MB
system.ruby.dir_cntrl15.responseToDir.avg_buf_msgs     0.038889                       # Average number of messages in buffer
system.ruby.dir_cntrl15.responseToDir.avg_stall_time 25773.870245                       # Average number of cycles messages are stalled in this MB
system.ruby.dir_cntrl16.forwardToDir.avg_buf_msgs     0.099999                       # Average number of messages in buffer
system.ruby.dir_cntrl16.forwardToDir.avg_stall_time 11419.558118                       # Average number of cycles messages are stalled in this MB
system.ruby.dir_cntrl16.requestToDir.avg_buf_msgs     0.055555                       # Average number of messages in buffer
system.ruby.dir_cntrl16.requestToDir.avg_stall_time 23775.401325                       # Average number of cycles messages are stalled in this MB
system.ruby.dir_cntrl16.responseToDir.avg_buf_msgs     0.011111                       # Average number of messages in buffer
system.ruby.dir_cntrl16.responseToDir.avg_stall_time  6017.200987                       # Average number of cycles messages are stalled in this MB
system.ruby.dir_cntrl17.forwardToDir.avg_buf_msgs     0.061111                       # Average number of messages in buffer
system.ruby.dir_cntrl17.forwardToDir.avg_stall_time 17418.859284                       # Average number of cycles messages are stalled in this MB
system.ruby.dir_cntrl17.requestToDir.avg_buf_msgs     0.122221                       # Average number of messages in buffer
system.ruby.dir_cntrl17.requestToDir.avg_stall_time 13894.066726                       # Average number of cycles messages are stalled in this MB
system.ruby.dir_cntrl17.responseToDir.avg_buf_msgs     0.038889                       # Average number of messages in buffer
system.ruby.dir_cntrl17.responseToDir.avg_stall_time 29369.728760                       # Average number of cycles messages are stalled in this MB
system.ruby.dir_cntrl18.forwardToDir.avg_buf_msgs     0.083342                       # Average number of messages in buffer
system.ruby.dir_cntrl18.forwardToDir.avg_stall_time 12964.242683                       # Average number of cycles messages are stalled in this MB
system.ruby.dir_cntrl18.requestToDir.avg_buf_msgs     0.077777                       # Average number of messages in buffer
system.ruby.dir_cntrl18.requestToDir.avg_stall_time 15914.013209                       # Average number of cycles messages are stalled in this MB
system.ruby.dir_cntrl18.responseToDir.avg_buf_msgs     0.027778                       # Average number of messages in buffer
system.ruby.dir_cntrl18.responseToDir.avg_stall_time 33681.752341                       # Average number of cycles messages are stalled in this MB
system.ruby.dir_cntrl19.forwardToDir.avg_buf_msgs     0.077777                       # Average number of messages in buffer
system.ruby.dir_cntrl19.forwardToDir.avg_stall_time 21199.332621                       # Average number of cycles messages are stalled in this MB
system.ruby.dir_cntrl19.requestToDir.avg_buf_msgs     0.077777                       # Average number of messages in buffer
system.ruby.dir_cntrl19.requestToDir.avg_stall_time 11559.178945                       # Average number of cycles messages are stalled in this MB
system.ruby.dir_cntrl19.responseToDir.avg_buf_msgs     0.022222                       # Average number of messages in buffer
system.ruby.dir_cntrl19.responseToDir.avg_stall_time 13893.855617                       # Average number of cycles messages are stalled in this MB
system.ruby.dir_cntrl2.forwardToDir.avg_buf_msgs     0.061111                       # Average number of messages in buffer
system.ruby.dir_cntrl2.forwardToDir.avg_stall_time 19577.476604                       # Average number of cycles messages are stalled in this MB
system.ruby.dir_cntrl2.requestToDir.avg_buf_msgs     0.111110                       # Average number of messages in buffer
system.ruby.dir_cntrl2.requestToDir.avg_stall_time 15379.851880                       # Average number of cycles messages are stalled in this MB
system.ruby.dir_cntrl2.responseToDir.avg_buf_msgs     0.005565                       # Average number of messages in buffer
system.ruby.dir_cntrl2.responseToDir.avg_stall_time 12256.933084                       # Average number of cycles messages are stalled in this MB
system.ruby.dir_cntrl20.forwardToDir.avg_buf_msgs     0.083333                       # Average number of messages in buffer
system.ruby.dir_cntrl20.forwardToDir.avg_stall_time 16729.510616                       # Average number of cycles messages are stalled in this MB
system.ruby.dir_cntrl20.requestToDir.avg_buf_msgs     0.083333                       # Average number of messages in buffer
system.ruby.dir_cntrl20.requestToDir.avg_stall_time  8877.422408                       # Average number of cycles messages are stalled in this MB
system.ruby.dir_cntrl20.responseToDir.avg_buf_msgs     0.033333                       # Average number of messages in buffer
system.ruby.dir_cntrl20.responseToDir.avg_stall_time 36084.817218                       # Average number of cycles messages are stalled in this MB
system.ruby.dir_cntrl21.forwardToDir.avg_buf_msgs     0.044444                       # Average number of messages in buffer
system.ruby.dir_cntrl21.forwardToDir.avg_stall_time 14851.368272                       # Average number of cycles messages are stalled in this MB
system.ruby.dir_cntrl21.requestToDir.avg_buf_msgs     0.066666                       # Average number of messages in buffer
system.ruby.dir_cntrl21.requestToDir.avg_stall_time 15589.666450                       # Average number of cycles messages are stalled in this MB
system.ruby.dir_cntrl21.responseToDir.avg_buf_msgs     0.011111                       # Average number of messages in buffer
system.ruby.dir_cntrl21.responseToDir.avg_stall_time 24946.089627                       # Average number of cycles messages are stalled in this MB
system.ruby.dir_cntrl22.forwardToDir.avg_buf_msgs     0.055555                       # Average number of messages in buffer
system.ruby.dir_cntrl22.forwardToDir.avg_stall_time 19766.396938                       # Average number of cycles messages are stalled in this MB
system.ruby.dir_cntrl22.requestToDir.avg_buf_msgs     0.066666                       # Average number of messages in buffer
system.ruby.dir_cntrl22.requestToDir.avg_stall_time 18502.781787                       # Average number of cycles messages are stalled in this MB
system.ruby.dir_cntrl22.responseToDir.avg_buf_msgs     0.016667                       # Average number of messages in buffer
system.ruby.dir_cntrl22.responseToDir.avg_stall_time 17319.715830                       # Average number of cycles messages are stalled in this MB
system.ruby.dir_cntrl23.forwardToDir.avg_buf_msgs     0.072222                       # Average number of messages in buffer
system.ruby.dir_cntrl23.forwardToDir.avg_stall_time 19945.739591                       # Average number of cycles messages are stalled in this MB
system.ruby.dir_cntrl23.requestToDir.avg_buf_msgs     0.099999                       # Average number of messages in buffer
system.ruby.dir_cntrl23.requestToDir.avg_stall_time 14144.636444                       # Average number of cycles messages are stalled in this MB
system.ruby.dir_cntrl23.responseToDir.avg_buf_msgs     0.016667                       # Average number of messages in buffer
system.ruby.dir_cntrl23.responseToDir.avg_stall_time 14085.314815                       # Average number of cycles messages are stalled in this MB
system.ruby.dir_cntrl24.forwardToDir.avg_buf_msgs     0.061111                       # Average number of messages in buffer
system.ruby.dir_cntrl24.forwardToDir.avg_stall_time 15286.869476                       # Average number of cycles messages are stalled in this MB
system.ruby.dir_cntrl24.requestToDir.avg_buf_msgs     0.083333                       # Average number of messages in buffer
system.ruby.dir_cntrl24.requestToDir.avg_stall_time 20112.032374                       # Average number of cycles messages are stalled in this MB
system.ruby.dir_cntrl24.responseToDir.avg_buf_msgs     0.016667                       # Average number of messages in buffer
system.ruby.dir_cntrl24.responseToDir.avg_stall_time 25891.341294                       # Average number of cycles messages are stalled in this MB
system.ruby.dir_cntrl25.forwardToDir.avg_buf_msgs     0.094444                       # Average number of messages in buffer
system.ruby.dir_cntrl25.forwardToDir.avg_stall_time 19030.765400                       # Average number of cycles messages are stalled in this MB
system.ruby.dir_cntrl25.requestToDir.avg_buf_msgs     0.094453                       # Average number of messages in buffer
system.ruby.dir_cntrl25.requestToDir.avg_stall_time 14876.234690                       # Average number of cycles messages are stalled in this MB
system.ruby.dir_cntrl25.responseToDir.avg_buf_msgs     0.038889                       # Average number of messages in buffer
system.ruby.dir_cntrl25.responseToDir.avg_stall_time 22536.924811                       # Average number of cycles messages are stalled in this MB
system.ruby.dir_cntrl26.forwardToDir.avg_buf_msgs     0.066666                       # Average number of messages in buffer
system.ruby.dir_cntrl26.forwardToDir.avg_stall_time 21603.823023                       # Average number of cycles messages are stalled in this MB
system.ruby.dir_cntrl26.requestToDir.avg_buf_msgs     0.072222                       # Average number of messages in buffer
system.ruby.dir_cntrl26.requestToDir.avg_stall_time 13483.031944                       # Average number of cycles messages are stalled in this MB
system.ruby.dir_cntrl26.responseToDir.avg_buf_msgs     0.011111                       # Average number of messages in buffer
system.ruby.dir_cntrl26.responseToDir.avg_stall_time 29014.148979                       # Average number of cycles messages are stalled in this MB
system.ruby.dir_cntrl27.forwardToDir.avg_buf_msgs     0.055555                       # Average number of messages in buffer
system.ruby.dir_cntrl27.forwardToDir.avg_stall_time 16460.763302                       # Average number of cycles messages are stalled in this MB
system.ruby.dir_cntrl27.requestToDir.avg_buf_msgs     0.033333                       # Average number of messages in buffer
system.ruby.dir_cntrl27.requestToDir.avg_stall_time  8534.686944                       # Average number of cycles messages are stalled in this MB
system.ruby.dir_cntrl27.responseToDir.avg_buf_msgs     0.044444                       # Average number of messages in buffer
system.ruby.dir_cntrl27.responseToDir.avg_stall_time 31720.360828                       # Average number of cycles messages are stalled in this MB
system.ruby.dir_cntrl28.forwardToDir.avg_buf_msgs     0.055555                       # Average number of messages in buffer
system.ruby.dir_cntrl28.forwardToDir.avg_stall_time 13953.160580                       # Average number of cycles messages are stalled in this MB
system.ruby.dir_cntrl28.requestToDir.avg_buf_msgs     0.127777                       # Average number of messages in buffer
system.ruby.dir_cntrl28.requestToDir.avg_stall_time 20337.469010                       # Average number of cycles messages are stalled in this MB
system.ruby.dir_cntrl28.responseToDir.avg_buf_msgs     0.011111                       # Average number of messages in buffer
system.ruby.dir_cntrl28.responseToDir.avg_stall_time 26398.147341                       # Average number of cycles messages are stalled in this MB
system.ruby.dir_cntrl29.forwardToDir.avg_buf_msgs     0.061111                       # Average number of messages in buffer
system.ruby.dir_cntrl29.forwardToDir.avg_stall_time 13202.018085                       # Average number of cycles messages are stalled in this MB
system.ruby.dir_cntrl29.requestToDir.avg_buf_msgs     0.088888                       # Average number of messages in buffer
system.ruby.dir_cntrl29.requestToDir.avg_stall_time 14835.835094                       # Average number of cycles messages are stalled in this MB
system.ruby.dir_cntrl29.responseToDir.avg_buf_msgs     0.005556                       # Average number of messages in buffer
system.ruby.dir_cntrl29.responseToDir.avg_stall_time 10471.395370                       # Average number of cycles messages are stalled in this MB
system.ruby.dir_cntrl3.forwardToDir.avg_buf_msgs     0.094444                       # Average number of messages in buffer
system.ruby.dir_cntrl3.forwardToDir.avg_stall_time 18715.735214                       # Average number of cycles messages are stalled in this MB
system.ruby.dir_cntrl3.requestToDir.avg_buf_msgs     0.083333                       # Average number of messages in buffer
system.ruby.dir_cntrl3.requestToDir.avg_stall_time 12000.391203                       # Average number of cycles messages are stalled in this MB
system.ruby.dir_cntrl3.responseToDir.avg_buf_msgs     0.033333                       # Average number of messages in buffer
system.ruby.dir_cntrl3.responseToDir.avg_stall_time 31741.810613                       # Average number of cycles messages are stalled in this MB
system.ruby.dir_cntrl30.forwardToDir.avg_buf_msgs     0.105555                       # Average number of messages in buffer
system.ruby.dir_cntrl30.forwardToDir.avg_stall_time 17020.252156                       # Average number of cycles messages are stalled in this MB
system.ruby.dir_cntrl30.requestToDir.avg_buf_msgs     0.088888                       # Average number of messages in buffer
system.ruby.dir_cntrl30.requestToDir.avg_stall_time 14301.945984                       # Average number of cycles messages are stalled in this MB
system.ruby.dir_cntrl30.responseToDir.avg_buf_msgs     0.011111                       # Average number of messages in buffer
system.ruby.dir_cntrl30.responseToDir.avg_stall_time 21798.848852                       # Average number of cycles messages are stalled in this MB
system.ruby.dir_cntrl31.forwardToDir.avg_buf_msgs     0.066666                       # Average number of messages in buffer
system.ruby.dir_cntrl31.forwardToDir.avg_stall_time 19571.171111                       # Average number of cycles messages are stalled in this MB
system.ruby.dir_cntrl31.requestToDir.avg_buf_msgs     0.088898                       # Average number of messages in buffer
system.ruby.dir_cntrl31.requestToDir.avg_stall_time 19670.209011                       # Average number of cycles messages are stalled in this MB
system.ruby.dir_cntrl31.responseToDir.avg_buf_msgs     0.027778                       # Average number of messages in buffer
system.ruby.dir_cntrl31.responseToDir.avg_stall_time 25276.669658                       # Average number of cycles messages are stalled in this MB
system.ruby.dir_cntrl32.forwardToDir.avg_buf_msgs     0.094444                       # Average number of messages in buffer
system.ruby.dir_cntrl32.forwardToDir.avg_stall_time 13251.334259                       # Average number of cycles messages are stalled in this MB
system.ruby.dir_cntrl32.requestToDir.avg_buf_msgs     0.077777                       # Average number of messages in buffer
system.ruby.dir_cntrl32.requestToDir.avg_stall_time 20491.900800                       # Average number of cycles messages are stalled in this MB
system.ruby.dir_cntrl32.responseToDir.avg_buf_msgs     0.022222                       # Average number of messages in buffer
system.ruby.dir_cntrl32.responseToDir.avg_stall_time 28689.979996                       # Average number of cycles messages are stalled in this MB
system.ruby.dir_cntrl33.forwardToDir.avg_buf_msgs     0.061111                       # Average number of messages in buffer
system.ruby.dir_cntrl33.forwardToDir.avg_stall_time 18802.056574                       # Average number of cycles messages are stalled in this MB
system.ruby.dir_cntrl33.requestToDir.avg_buf_msgs     0.105555                       # Average number of messages in buffer
system.ruby.dir_cntrl33.requestToDir.avg_stall_time  9050.709565                       # Average number of cycles messages are stalled in this MB
system.ruby.dir_cntrl33.responseToDir.avg_buf_msgs     0.005556                       # Average number of messages in buffer
system.ruby.dir_cntrl33.responseToDir.avg_stall_time  7744.372618                       # Average number of cycles messages are stalled in this MB
system.ruby.dir_cntrl34.forwardToDir.avg_buf_msgs     0.038889                       # Average number of messages in buffer
system.ruby.dir_cntrl34.forwardToDir.avg_stall_time 13325.716849                       # Average number of cycles messages are stalled in this MB
system.ruby.dir_cntrl34.requestToDir.avg_buf_msgs     0.050000                       # Average number of messages in buffer
system.ruby.dir_cntrl34.requestToDir.avg_stall_time 22845.843946                       # Average number of cycles messages are stalled in this MB
system.ruby.dir_cntrl34.responseToDir.avg_buf_msgs     0.005556                       # Average number of messages in buffer
system.ruby.dir_cntrl34.responseToDir.avg_stall_time 21715.199688                       # Average number of cycles messages are stalled in this MB
system.ruby.dir_cntrl35.forwardToDir.avg_buf_msgs     0.061111                       # Average number of messages in buffer
system.ruby.dir_cntrl35.forwardToDir.avg_stall_time 22611.001849                       # Average number of cycles messages are stalled in this MB
system.ruby.dir_cntrl35.requestToDir.avg_buf_msgs     0.077777                       # Average number of messages in buffer
system.ruby.dir_cntrl35.requestToDir.avg_stall_time 18236.912221                       # Average number of cycles messages are stalled in this MB
system.ruby.dir_cntrl35.responseToDir.avg_buf_msgs     0.033333                       # Average number of messages in buffer
system.ruby.dir_cntrl35.responseToDir.avg_stall_time 30765.603701                       # Average number of cycles messages are stalled in this MB
system.ruby.dir_cntrl36.forwardToDir.avg_buf_msgs     0.038889                       # Average number of messages in buffer
system.ruby.dir_cntrl36.forwardToDir.avg_stall_time 12043.568549                       # Average number of cycles messages are stalled in this MB
system.ruby.dir_cntrl36.requestToDir.avg_buf_msgs     0.055555                       # Average number of messages in buffer
system.ruby.dir_cntrl36.requestToDir.avg_stall_time 10032.821974                       # Average number of cycles messages are stalled in this MB
system.ruby.dir_cntrl36.responseToDir.avg_buf_msgs     0.016667                       # Average number of messages in buffer
system.ruby.dir_cntrl36.responseToDir.avg_stall_time 15809.714251                       # Average number of cycles messages are stalled in this MB
system.ruby.dir_cntrl37.forwardToDir.avg_buf_msgs     0.072222                       # Average number of messages in buffer
system.ruby.dir_cntrl37.forwardToDir.avg_stall_time 13226.656728                       # Average number of cycles messages are stalled in this MB
system.ruby.dir_cntrl37.requestToDir.avg_buf_msgs     0.077777                       # Average number of messages in buffer
system.ruby.dir_cntrl37.requestToDir.avg_stall_time 16679.983333                       # Average number of cycles messages are stalled in this MB
system.ruby.dir_cntrl37.responseToDir.avg_buf_msgs     0.022222                       # Average number of messages in buffer
system.ruby.dir_cntrl37.responseToDir.avg_stall_time 29990.322559                       # Average number of cycles messages are stalled in this MB
system.ruby.dir_cntrl38.forwardToDir.avg_buf_msgs     0.083333                       # Average number of messages in buffer
system.ruby.dir_cntrl38.forwardToDir.avg_stall_time 16701.977558                       # Average number of cycles messages are stalled in this MB
system.ruby.dir_cntrl38.requestToDir.avg_buf_msgs     0.116666                       # Average number of messages in buffer
system.ruby.dir_cntrl38.requestToDir.avg_stall_time 16840.542840                       # Average number of cycles messages are stalled in this MB
system.ruby.dir_cntrl38.responseToDir.avg_buf_msgs     0.038889                       # Average number of messages in buffer
system.ruby.dir_cntrl38.responseToDir.avg_stall_time 22635.579381                       # Average number of cycles messages are stalled in this MB
system.ruby.dir_cntrl39.forwardToDir.avg_buf_msgs     0.099999                       # Average number of messages in buffer
system.ruby.dir_cntrl39.forwardToDir.avg_stall_time 22354.515522                       # Average number of cycles messages are stalled in this MB
system.ruby.dir_cntrl39.requestToDir.avg_buf_msgs     0.061111                       # Average number of messages in buffer
system.ruby.dir_cntrl39.requestToDir.avg_stall_time 17014.141106                       # Average number of cycles messages are stalled in this MB
system.ruby.dir_cntrl39.responseToDir.avg_buf_msgs     0.027778                       # Average number of messages in buffer
system.ruby.dir_cntrl39.responseToDir.avg_stall_time 24099.970304                       # Average number of cycles messages are stalled in this MB
system.ruby.dir_cntrl4.forwardToDir.avg_buf_msgs     0.077777                       # Average number of messages in buffer
system.ruby.dir_cntrl4.forwardToDir.avg_stall_time 15073.677161                       # Average number of cycles messages are stalled in this MB
system.ruby.dir_cntrl4.requestToDir.avg_buf_msgs     0.105555                       # Average number of messages in buffer
system.ruby.dir_cntrl4.requestToDir.avg_stall_time  9677.464414                       # Average number of cycles messages are stalled in this MB
system.ruby.dir_cntrl4.responseToDir.avg_buf_msgs     0.044444                       # Average number of messages in buffer
system.ruby.dir_cntrl4.responseToDir.avg_stall_time 34104.864780                       # Average number of cycles messages are stalled in this MB
system.ruby.dir_cntrl40.forwardToDir.avg_buf_msgs     0.038889                       # Average number of messages in buffer
system.ruby.dir_cntrl40.forwardToDir.avg_stall_time 15280.730648                       # Average number of cycles messages are stalled in this MB
system.ruby.dir_cntrl40.requestToDir.avg_buf_msgs     0.061111                       # Average number of messages in buffer
system.ruby.dir_cntrl40.requestToDir.avg_stall_time 15639.127067                       # Average number of cycles messages are stalled in this MB
system.ruby.dir_cntrl40.responseToDir.avg_buf_msgs     0.011111                       # Average number of messages in buffer
system.ruby.dir_cntrl40.responseToDir.avg_stall_time 29434.400336                       # Average number of cycles messages are stalled in this MB
system.ruby.dir_cntrl41.forwardToDir.avg_buf_msgs     0.066666                       # Average number of messages in buffer
system.ruby.dir_cntrl41.forwardToDir.avg_stall_time  8821.856296                       # Average number of cycles messages are stalled in this MB
system.ruby.dir_cntrl41.requestToDir.avg_buf_msgs     0.077777                       # Average number of messages in buffer
system.ruby.dir_cntrl41.requestToDir.avg_stall_time 26397.791789                       # Average number of cycles messages are stalled in this MB
system.ruby.dir_cntrl41.responseToDir.avg_buf_msgs     0.016667                       # Average number of messages in buffer
system.ruby.dir_cntrl41.responseToDir.avg_stall_time 21137.877679                       # Average number of cycles messages are stalled in this MB
system.ruby.dir_cntrl42.forwardToDir.avg_buf_msgs     0.038889                       # Average number of messages in buffer
system.ruby.dir_cntrl42.forwardToDir.avg_stall_time 20989.206942                       # Average number of cycles messages are stalled in this MB
system.ruby.dir_cntrl42.requestToDir.avg_buf_msgs     0.083333                       # Average number of messages in buffer
system.ruby.dir_cntrl42.requestToDir.avg_stall_time 20392.746236                       # Average number of cycles messages are stalled in this MB
system.ruby.dir_cntrl42.responseToDir.avg_buf_msgs     0.022222                       # Average number of messages in buffer
system.ruby.dir_cntrl42.responseToDir.avg_stall_time 27744.778330                       # Average number of cycles messages are stalled in this MB
system.ruby.dir_cntrl43.forwardToDir.avg_buf_msgs     0.066666                       # Average number of messages in buffer
system.ruby.dir_cntrl43.forwardToDir.avg_stall_time 13520.003797                       # Average number of cycles messages are stalled in this MB
system.ruby.dir_cntrl43.requestToDir.avg_buf_msgs     0.061111                       # Average number of messages in buffer
system.ruby.dir_cntrl43.requestToDir.avg_stall_time 20587.727621                       # Average number of cycles messages are stalled in this MB
system.ruby.dir_cntrl43.responseToDir.avg_buf_msgs     0.011111                       # Average number of messages in buffer
system.ruby.dir_cntrl43.responseToDir.avg_stall_time 21461.802220                       # Average number of cycles messages are stalled in this MB
system.ruby.dir_cntrl44.forwardToDir.avg_buf_msgs     0.061111                       # Average number of messages in buffer
system.ruby.dir_cntrl44.forwardToDir.avg_stall_time 19135.975460                       # Average number of cycles messages are stalled in this MB
system.ruby.dir_cntrl44.requestToDir.avg_buf_msgs     0.055555                       # Average number of messages in buffer
system.ruby.dir_cntrl44.requestToDir.avg_stall_time 14604.615182                       # Average number of cycles messages are stalled in this MB
system.ruby.dir_cntrl44.responseToDir.avg_buf_msgs     0.016667                       # Average number of messages in buffer
system.ruby.dir_cntrl44.responseToDir.avg_stall_time 13820.328574                       # Average number of cycles messages are stalled in this MB
system.ruby.dir_cntrl45.forwardToDir.avg_buf_msgs     0.055555                       # Average number of messages in buffer
system.ruby.dir_cntrl45.forwardToDir.avg_stall_time 19735.125029                       # Average number of cycles messages are stalled in this MB
system.ruby.dir_cntrl45.requestToDir.avg_buf_msgs     0.038889                       # Average number of messages in buffer
system.ruby.dir_cntrl45.requestToDir.avg_stall_time 12195.661474                       # Average number of cycles messages are stalled in this MB
system.ruby.dir_cntrl45.responseToDir.avg_buf_msgs     0.027778                       # Average number of messages in buffer
system.ruby.dir_cntrl45.responseToDir.avg_stall_time 31488.318702                       # Average number of cycles messages are stalled in this MB
system.ruby.dir_cntrl46.forwardToDir.avg_buf_msgs     0.083333                       # Average number of messages in buffer
system.ruby.dir_cntrl46.forwardToDir.avg_stall_time 12825.110740                       # Average number of cycles messages are stalled in this MB
system.ruby.dir_cntrl46.requestToDir.avg_buf_msgs     0.061111                       # Average number of messages in buffer
system.ruby.dir_cntrl46.requestToDir.avg_stall_time 22033.246510                       # Average number of cycles messages are stalled in this MB
system.ruby.dir_cntrl46.responseToDir.avg_buf_msgs     0.033333                       # Average number of messages in buffer
system.ruby.dir_cntrl46.responseToDir.avg_stall_time 27639.573825                       # Average number of cycles messages are stalled in this MB
system.ruby.dir_cntrl47.forwardToDir.avg_buf_msgs     0.083333                       # Average number of messages in buffer
system.ruby.dir_cntrl47.forwardToDir.avg_stall_time 20266.047502                       # Average number of cycles messages are stalled in this MB
system.ruby.dir_cntrl47.requestToDir.avg_buf_msgs     0.122221                       # Average number of messages in buffer
system.ruby.dir_cntrl47.requestToDir.avg_stall_time 19151.308640                       # Average number of cycles messages are stalled in this MB
system.ruby.dir_cntrl47.responseToDir.avg_buf_msgs     0.022222                       # Average number of messages in buffer
system.ruby.dir_cntrl47.responseToDir.avg_stall_time 21733.721725                       # Average number of cycles messages are stalled in this MB
system.ruby.dir_cntrl48.forwardToDir.avg_buf_msgs     0.111110                       # Average number of messages in buffer
system.ruby.dir_cntrl48.forwardToDir.avg_stall_time 10869.952498                       # Average number of cycles messages are stalled in this MB
system.ruby.dir_cntrl48.requestToDir.avg_buf_msgs     0.099999                       # Average number of messages in buffer
system.ruby.dir_cntrl48.requestToDir.avg_stall_time 18777.606818                       # Average number of cycles messages are stalled in this MB
system.ruby.dir_cntrl48.responseToDir.avg_buf_msgs     0.016667                       # Average number of messages in buffer
system.ruby.dir_cntrl48.responseToDir.avg_stall_time 23117.613453                       # Average number of cycles messages are stalled in this MB
system.ruby.dir_cntrl49.forwardToDir.avg_buf_msgs     0.077777                       # Average number of messages in buffer
system.ruby.dir_cntrl49.forwardToDir.avg_stall_time  9689.980955                       # Average number of cycles messages are stalled in this MB
system.ruby.dir_cntrl49.requestToDir.avg_buf_msgs     0.144443                       # Average number of messages in buffer
system.ruby.dir_cntrl49.requestToDir.avg_stall_time 16559.428983                       # Average number of cycles messages are stalled in this MB
system.ruby.dir_cntrl49.responseToDir.avg_buf_msgs     0.027787                       # Average number of messages in buffer
system.ruby.dir_cntrl49.responseToDir.avg_stall_time 18202.923672                       # Average number of cycles messages are stalled in this MB
system.ruby.dir_cntrl5.forwardToDir.avg_buf_msgs     0.088888                       # Average number of messages in buffer
system.ruby.dir_cntrl5.forwardToDir.avg_stall_time 16497.635156                       # Average number of cycles messages are stalled in this MB
system.ruby.dir_cntrl5.requestToDir.avg_buf_msgs     0.066666                       # Average number of messages in buffer
system.ruby.dir_cntrl5.requestToDir.avg_stall_time 18447.171231                       # Average number of cycles messages are stalled in this MB
system.ruby.dir_cntrl5.responseToDir.avg_buf_msgs     0.038889                       # Average number of messages in buffer
system.ruby.dir_cntrl5.responseToDir.avg_stall_time 22827.527463                       # Average number of cycles messages are stalled in this MB
system.ruby.dir_cntrl50.forwardToDir.avg_buf_msgs     0.083333                       # Average number of messages in buffer
system.ruby.dir_cntrl50.forwardToDir.avg_stall_time 19997.622406                       # Average number of cycles messages are stalled in this MB
system.ruby.dir_cntrl50.requestToDir.avg_buf_msgs     0.111110                       # Average number of messages in buffer
system.ruby.dir_cntrl50.requestToDir.avg_stall_time 12321.537994                       # Average number of cycles messages are stalled in this MB
system.ruby.dir_cntrl50.responseToDir.avg_buf_msgs     0.016667                       # Average number of messages in buffer
system.ruby.dir_cntrl50.responseToDir.avg_stall_time 24529.027128                       # Average number of cycles messages are stalled in this MB
system.ruby.dir_cntrl51.forwardToDir.avg_buf_msgs     0.105555                       # Average number of messages in buffer
system.ruby.dir_cntrl51.forwardToDir.avg_stall_time 18313.894785                       # Average number of cycles messages are stalled in this MB
system.ruby.dir_cntrl51.requestToDir.avg_buf_msgs     0.083333                       # Average number of messages in buffer
system.ruby.dir_cntrl51.requestToDir.avg_stall_time 11447.346729                       # Average number of cycles messages are stalled in this MB
system.ruby.dir_cntrl51.responseToDir.avg_buf_msgs     0.038889                       # Average number of messages in buffer
system.ruby.dir_cntrl51.responseToDir.avg_stall_time 25480.839840                       # Average number of cycles messages are stalled in this MB
system.ruby.dir_cntrl52.forwardToDir.avg_buf_msgs     0.088888                       # Average number of messages in buffer
system.ruby.dir_cntrl52.forwardToDir.avg_stall_time 15840.341723                       # Average number of cycles messages are stalled in this MB
system.ruby.dir_cntrl52.requestToDir.avg_buf_msgs     0.116666                       # Average number of messages in buffer
system.ruby.dir_cntrl52.requestToDir.avg_stall_time 14159.858515                       # Average number of cycles messages are stalled in this MB
system.ruby.dir_cntrl52.responseToDir.avg_buf_msgs     0.022222                       # Average number of messages in buffer
system.ruby.dir_cntrl52.responseToDir.avg_stall_time 28214.406970                       # Average number of cycles messages are stalled in this MB
system.ruby.dir_cntrl53.forwardToDir.avg_buf_msgs     0.083333                       # Average number of messages in buffer
system.ruby.dir_cntrl53.forwardToDir.avg_stall_time  8185.534877                       # Average number of cycles messages are stalled in this MB
system.ruby.dir_cntrl53.requestToDir.avg_buf_msgs     0.050000                       # Average number of messages in buffer
system.ruby.dir_cntrl53.requestToDir.avg_stall_time 18388.371819                       # Average number of cycles messages are stalled in this MB
system.ruby.dir_cntrl53.responseToDir.avg_buf_msgs     0.027778                       # Average number of messages in buffer
system.ruby.dir_cntrl53.responseToDir.avg_stall_time 31547.179225                       # Average number of cycles messages are stalled in this MB
system.ruby.dir_cntrl54.forwardToDir.avg_buf_msgs     0.088898                       # Average number of messages in buffer
system.ruby.dir_cntrl54.forwardToDir.avg_stall_time  9520.093764                       # Average number of cycles messages are stalled in this MB
system.ruby.dir_cntrl54.requestToDir.avg_buf_msgs     0.050000                       # Average number of messages in buffer
system.ruby.dir_cntrl54.requestToDir.avg_stall_time 21761.138118                       # Average number of cycles messages are stalled in this MB
system.ruby.dir_cntrl54.responseToDir.avg_buf_msgs     0.038889                       # Average number of messages in buffer
system.ruby.dir_cntrl54.responseToDir.avg_stall_time 36001.279164                       # Average number of cycles messages are stalled in this MB
system.ruby.dir_cntrl55.forwardToDir.avg_buf_msgs     0.050000                       # Average number of messages in buffer
system.ruby.dir_cntrl55.forwardToDir.avg_stall_time 17875.626942                       # Average number of cycles messages are stalled in this MB
system.ruby.dir_cntrl55.requestToDir.avg_buf_msgs     0.094444                       # Average number of messages in buffer
system.ruby.dir_cntrl55.requestToDir.avg_stall_time 13801.145432                       # Average number of cycles messages are stalled in this MB
system.ruby.dir_cntrl55.responseToDir.avg_buf_msgs     0.005556                       # Average number of messages in buffer
system.ruby.dir_cntrl55.responseToDir.avg_stall_time  7543.607958                       # Average number of cycles messages are stalled in this MB
system.ruby.dir_cntrl56.forwardToDir.avg_buf_msgs     0.083333                       # Average number of messages in buffer
system.ruby.dir_cntrl56.forwardToDir.avg_stall_time 18063.975060                       # Average number of cycles messages are stalled in this MB
system.ruby.dir_cntrl56.requestToDir.avg_buf_msgs     0.066666                       # Average number of messages in buffer
system.ruby.dir_cntrl56.requestToDir.avg_stall_time 16738.993855                       # Average number of cycles messages are stalled in this MB
system.ruby.dir_cntrl56.responseToDir.avg_buf_msgs     0.011111                       # Average number of messages in buffer
system.ruby.dir_cntrl56.responseToDir.avg_stall_time 16402.680549                       # Average number of cycles messages are stalled in this MB
system.ruby.dir_cntrl57.forwardToDir.avg_buf_msgs     0.111110                       # Average number of messages in buffer
system.ruby.dir_cntrl57.forwardToDir.avg_stall_time 14218.074600                       # Average number of cycles messages are stalled in this MB
system.ruby.dir_cntrl57.requestToDir.avg_buf_msgs     0.066666                       # Average number of messages in buffer
system.ruby.dir_cntrl57.requestToDir.avg_stall_time  9782.463365                       # Average number of cycles messages are stalled in this MB
system.ruby.dir_cntrl57.responseToDir.avg_buf_msgs     0.016667                       # Average number of messages in buffer
system.ruby.dir_cntrl57.responseToDir.avg_stall_time 23803.262158                       # Average number of cycles messages are stalled in this MB
system.ruby.dir_cntrl58.forwardToDir.avg_buf_msgs     0.066666                       # Average number of messages in buffer
system.ruby.dir_cntrl58.forwardToDir.avg_stall_time 18048.369661                       # Average number of cycles messages are stalled in this MB
system.ruby.dir_cntrl58.requestToDir.avg_buf_msgs     0.088888                       # Average number of messages in buffer
system.ruby.dir_cntrl58.requestToDir.avg_stall_time 18394.905087                       # Average number of cycles messages are stalled in this MB
system.ruby.dir_cntrl58.responseToDir.avg_buf_msgs     0.011111                       # Average number of messages in buffer
[...]
system.mem_ctrls59.rdQLenPdf::2                     0                       # What read queue length does an incoming req see
system.mem_ctrls59.rdQLenPdf::3                     0                       # What read queue length does an incoming req see
system.mem_ctrls59.rdQLenPdf::4                     0                       # What read queue length does an incoming req see
system.mem_ctrls59.rdQLenPdf::5                     0                       # What read queue length does an incoming req see
system.mem_ctrls59.rdQLenPdf::6                     0                       # What read queue length does an incoming req see
system.mem_ctrls59.rdQLenPdf::7                     0                       # What read queue length does an incoming req see
system.mem_ctrls59.rdQLenPdf::8                     0                       # What read queue length does an incoming req see
system.mem_ctrls59.rdQLenPdf::9                     0                       # What read queue length does an incoming req see
system.mem_ctrls59.rdQLenPdf::10                    0                       # What read queue length does an incoming req see
system.mem_ctrls59.rdQLenPdf::11                    0                       # What read queue length does an incoming req see
system.mem_ctrls59.rdQLenPdf::12                    0                       # What read queue length does an incoming req see
system.mem_ctrls59.rdQLenPdf::13                    0                       # What read queue length does an incoming req see
system.mem_ctrls59.rdQLenPdf::14                    0                       # What read queue length does an incoming req see
system.mem_ctrls59.rdQLenPdf::15                    0                       # What read queue length does an incoming req see
system.mem_ctrls59.rdQLenPdf::16                    0                       # What read queue length does an incoming req see
system.mem_ctrls59.rdQLenPdf::17                    0                       # What read queue length does an incoming req see
system.mem_ctrls59.rdQLenPdf::18                    0                       # What read queue length does an incoming req see
system.mem_ctrls59.rdQLenPdf::19                    0                       # What read queue length does an incoming req see
system.mem_ctrls59.rdQLenPdf::20                    0                       # What read queue length does an incoming req see
system.mem_ctrls59.rdQLenPdf::21                    0                       # What read queue length does an incoming req see
system.mem_ctrls59.rdQLenPdf::22                    0                       # What read queue length does an incoming req see
system.mem_ctrls59.rdQLenPdf::23                    0                       # What read queue length does an incoming req see
system.mem_ctrls59.rdQLenPdf::24                    0                       # What read queue length does an incoming req see
system.mem_ctrls59.rdQLenPdf::25                    0                       # What read queue length does an incoming req see
system.mem_ctrls59.rdQLenPdf::26                    0                       # What read queue length does an incoming req see
system.mem_ctrls59.rdQLenPdf::27                    0                       # What read queue length does an incoming req see
system.mem_ctrls59.rdQLenPdf::28                    0                       # What read queue length does an incoming req see
system.mem_ctrls59.rdQLenPdf::29                    0                       # What read queue length does an incoming req see
system.mem_ctrls59.rdQLenPdf::30                    0                       # What read queue length does an incoming req see
system.mem_ctrls59.rdQLenPdf::31                    0                       # What read queue length does an incoming req see
system.mem_ctrls59.wrQLenPdf::0                     0                       # What write queue length does an incoming req see
system.mem_ctrls59.wrQLenPdf::1                     0                       # What write queue length does an incoming req see
system.mem_ctrls59.wrQLenPdf::2                     0                       # What write queue length does an incoming req see
system.mem_ctrls59.wrQLenPdf::3                     0                       # What write queue length does an incoming req see
system.mem_ctrls59.wrQLenPdf::4                     0                       # What write queue length does an incoming req see
system.mem_ctrls59.wrQLenPdf::5                     0                       # What write queue length does an incoming req see
system.mem_ctrls59.wrQLenPdf::6                     0                       # What write queue length does an incoming req see
system.mem_ctrls59.wrQLenPdf::7                     0                       # What write queue length does an incoming req see
system.mem_ctrls59.wrQLenPdf::8                     0                       # What write queue length does an incoming req see
system.mem_ctrls59.wrQLenPdf::9                     0                       # What write queue length does an incoming req see
system.mem_ctrls59.wrQLenPdf::10                    0                       # What write queue length does an incoming req see
system.mem_ctrls59.wrQLenPdf::11                    0                       # What write queue length does an incoming req see
system.mem_ctrls59.wrQLenPdf::12                    0                       # What write queue length does an incoming req see
system.mem_ctrls59.wrQLenPdf::13                    0                       # What write queue length does an incoming req see
system.mem_ctrls59.wrQLenPdf::14                    0                       # What write queue length does an incoming req see
system.mem_ctrls59.wrQLenPdf::15                    0                       # What write queue length does an incoming req see
system.mem_ctrls59.wrQLenPdf::16                    0                       # What write queue length does an incoming req see
system.mem_ctrls59.wrQLenPdf::17                    0                       # What write queue length does an incoming req see
system.mem_ctrls59.wrQLenPdf::18                    0                       # What write queue length does an incoming req see
system.mem_ctrls59.wrQLenPdf::19                    0                       # What write queue length does an incoming req see
system.mem_ctrls59.wrQLenPdf::20                    0                       # What write queue length does an incoming req see
system.mem_ctrls59.wrQLenPdf::21                    0                       # What write queue length does an incoming req see
system.mem_ctrls59.wrQLenPdf::22                    0                       # What write queue length does an incoming req see
system.mem_ctrls59.wrQLenPdf::23                    0                       # What write queue length does an incoming req see
system.mem_ctrls59.wrQLenPdf::24                    0                       # What write queue length does an incoming req see
system.mem_ctrls59.wrQLenPdf::25                    0                       # What write queue length does an incoming req see
system.mem_ctrls59.wrQLenPdf::26                    0                       # What write queue length does an incoming req see
system.mem_ctrls59.wrQLenPdf::27                    0                       # What write queue length does an incoming req see
system.mem_ctrls59.wrQLenPdf::28                    0                       # What write queue length does an incoming req see
system.mem_ctrls59.wrQLenPdf::29                    0                       # What write queue length does an incoming req see
system.mem_ctrls59.wrQLenPdf::30                    0                       # What write queue length does an incoming req see
system.mem_ctrls59.wrQLenPdf::31                    0                       # What write queue length does an incoming req see
system.mem_ctrls59.wrQLenPdf::32                    0                       # What write queue length does an incoming req see
system.mem_ctrls59.wrQLenPdf::33                    0                       # What write queue length does an incoming req see
system.mem_ctrls59.wrQLenPdf::34                    0                       # What write queue length does an incoming req see
system.mem_ctrls59.wrQLenPdf::35                    0                       # What write queue length does an incoming req see
system.mem_ctrls59.wrQLenPdf::36                    0                       # What write queue length does an incoming req see
system.mem_ctrls59.wrQLenPdf::37                    0                       # What write queue length does an incoming req see
system.mem_ctrls59.wrQLenPdf::38                    0                       # What write queue length does an incoming req see
system.mem_ctrls59.wrQLenPdf::39                    0                       # What write queue length does an incoming req see
system.mem_ctrls59.wrQLenPdf::40                    0                       # What write queue length does an incoming req see
system.mem_ctrls59.wrQLenPdf::41                    0                       # What write queue length does an incoming req see
system.mem_ctrls59.wrQLenPdf::42                    0                       # What write queue length does an incoming req see
system.mem_ctrls59.wrQLenPdf::43                    0                       # What write queue length does an incoming req see
system.mem_ctrls59.wrQLenPdf::44                    0                       # What write queue length does an incoming req see
system.mem_ctrls59.wrQLenPdf::45                    0                       # What write queue length does an incoming req see
system.mem_ctrls59.wrQLenPdf::46                    0                       # What write queue length does an incoming req see
system.mem_ctrls59.wrQLenPdf::47                    0                       # What write queue length does an incoming req see
system.mem_ctrls59.wrQLenPdf::48                    0                       # What write queue length does an incoming req see
system.mem_ctrls59.wrQLenPdf::49                    0                       # What write queue length does an incoming req see
system.mem_ctrls59.wrQLenPdf::50                    0                       # What write queue length does an incoming req see
system.mem_ctrls59.wrQLenPdf::51                    0                       # What write queue length does an incoming req see
system.mem_ctrls59.wrQLenPdf::52                    0                       # What write queue length does an incoming req see
system.mem_ctrls59.wrQLenPdf::53                    0                       # What write queue length does an incoming req see
system.mem_ctrls59.wrQLenPdf::54                    0                       # What write queue length does an incoming req see
system.mem_ctrls59.wrQLenPdf::55                    0                       # What write queue length does an incoming req see
system.mem_ctrls59.wrQLenPdf::56                    0                       # What write queue length does an incoming req see
system.mem_ctrls59.wrQLenPdf::57                    0                       # What write queue length does an incoming req see
system.mem_ctrls59.wrQLenPdf::58                    0                       # What write queue length does an incoming req see
system.mem_ctrls59.wrQLenPdf::59                    0                       # What write queue length does an incoming req see
system.mem_ctrls59.wrQLenPdf::60                    0                       # What write queue length does an incoming req see
system.mem_ctrls59.wrQLenPdf::61                    0                       # What write queue length does an incoming req see
system.mem_ctrls59.wrQLenPdf::62                    0                       # What write queue length does an incoming req see
system.mem_ctrls59.wrQLenPdf::63                    0                       # What write queue length does an incoming req see
system.mem_ctrls59.bytesReadDRAM                    0                       # Total number of bytes read from DRAM
system.mem_ctrls59.bytesReadWrQ                     0                       # Total number of bytes read from write queue
system.mem_ctrls59.bytesWritten                     0                       # Total number of bytes written to DRAM
system.mem_ctrls59.bytesReadSys                     0                       # Total read bytes from the system interface side
system.mem_ctrls59.bytesWrittenSys                  0                       # Total written bytes from the system interface side
system.mem_ctrls59.avgRdBW                       0.00                       # Average DRAM read bandwidth in MiByte/s
system.mem_ctrls59.avgWrBW                       0.00                       # Average achieved write bandwidth in MiByte/s
system.mem_ctrls59.avgRdBWSys                    0.00                       # Average system read bandwidth in MiByte/s
system.mem_ctrls59.avgWrBWSys                    0.00                       # Average system write bandwidth in MiByte/s
system.mem_ctrls59.peakBW                    12800.00                       # Theoretical peak bandwidth in MiByte/s
system.mem_ctrls59.busUtil                       0.00                       # Data bus utilization in percentage
system.mem_ctrls59.busUtilRead                   0.00                       # Data bus utilization in percentage for reads
system.mem_ctrls59.busUtilWrite                  0.00                       # Data bus utilization in percentage for writes
system.mem_ctrls59.totGap                           0                       # Total gap between requests
system.mem_ctrls59.avgGap                         nan                       # Average gap between requests
system.mem_ctrls59.pageHitRate                    nan                       # Row buffer hit rate, read and write combined
system.mem_ctrls59.rank1.actEnergy                  0                       # Energy for activate commands per rank (pJ)
system.mem_ctrls59.rank1.preEnergy                  0                       # Energy for precharge commands per rank (pJ)
system.mem_ctrls59.rank1.readEnergy                 0                       # Energy for read commands per rank (pJ)
system.mem_ctrls59.rank1.writeEnergy                0                       # Energy for write commands per rank (pJ)
system.mem_ctrls59.rank1.refreshEnergy              0                       # Energy for refresh commands per rank (pJ)
system.mem_ctrls59.rank1.actBackEnergy              0                       # Energy for active background per rank (pJ)
system.mem_ctrls59.rank1.preBackEnergy          38880                       # Energy for precharge background per rank (pJ)
system.mem_ctrls59.rank1.actPowerDownEnergy            0                       # Energy for active power-down per rank (pJ)
system.mem_ctrls59.rank1.prePowerDownEnergy            0                       # Energy for precharge power-down per rank (pJ)
system.mem_ctrls59.rank1.selfRefreshEnergy            0                       # Energy for self refresh per rank (pJ)
system.mem_ctrls59.rank1.totalEnergy            38880                       # Total energy per rank (pJ)
system.mem_ctrls59.rank1.averagePower      388.489209                       # Core power per rank (mW)
system.mem_ctrls59.rank1.totalIdleTime              0                       # Total Idle time Per DRAM Rank
system.mem_ctrls59.rank1.memoryStateTime::IDLE       100080                       # Time in different power states
system.mem_ctrls59.rank1.memoryStateTime::REF            0                       # Time in different power states
system.mem_ctrls59.rank1.memoryStateTime::SREF            0                       # Time in different power states
system.mem_ctrls59.rank1.memoryStateTime::PRE_PDN            0                       # Time in different power states
system.mem_ctrls59.rank1.memoryStateTime::ACT            0                       # Time in different power states
system.mem_ctrls59.rank1.memoryStateTime::ACT_PDN            0                       # Time in different power states
system.mem_ctrls59.rank0.actEnergy                  0                       # Energy for activate commands per rank (pJ)
system.mem_ctrls59.rank0.preEnergy                  0                       # Energy for precharge commands per rank (pJ)
system.mem_ctrls59.rank0.readEnergy                 0                       # Energy for read commands per rank (pJ)
system.mem_ctrls59.rank0.writeEnergy                0                       # Energy for write commands per rank (pJ)
system.mem_ctrls59.rank0.refreshEnergy              0                       # Energy for refresh commands per rank (pJ)
system.mem_ctrls59.rank0.actBackEnergy              0                       # Energy for active background per rank (pJ)
system.mem_ctrls59.rank0.preBackEnergy          38880                       # Energy for precharge background per rank (pJ)
system.mem_ctrls59.rank0.actPowerDownEnergy            0                       # Energy for active power-down per rank (pJ)
system.mem_ctrls59.rank0.prePowerDownEnergy            0                       # Energy for precharge power-down per rank (pJ)
system.mem_ctrls59.rank0.selfRefreshEnergy            0                       # Energy for self refresh per rank (pJ)
system.mem_ctrls59.rank0.totalEnergy            38880                       # Total energy per rank (pJ)
system.mem_ctrls59.rank0.averagePower      388.489209                       # Core power per rank (mW)
system.mem_ctrls59.rank0.totalIdleTime              0                       # Total Idle time Per DRAM Rank
system.mem_ctrls59.rank0.memoryStateTime::IDLE       100080                       # Time in different power states
system.mem_ctrls59.rank0.memoryStateTime::REF            0                       # Time in different power states
system.mem_ctrls59.rank0.memoryStateTime::SREF            0                       # Time in different power states
system.mem_ctrls59.rank0.memoryStateTime::PRE_PDN            0                       # Time in different power states
system.mem_ctrls59.rank0.memoryStateTime::ACT            0                       # Time in different power states
system.mem_ctrls59.rank0.memoryStateTime::ACT_PDN            0                       # Time in different power states
system.mem_ctrls59.power_state.pwrStateResidencyTicks::UNDEFINED       100080                       # Cumulative time (in ticks) in various power states
system.cpu29.power_state.pwrStateResidencyTicks::UNDEFINED       100080                       # Cumulative time (in ticks) in various power states
system.cpu28.power_state.pwrStateResidencyTicks::UNDEFINED       100080                       # Cumulative time (in ticks) in various power states
system.cpu25.power_state.pwrStateResidencyTicks::UNDEFINED       100080                       # Cumulative time (in ticks) in various power states
system.cpu24.power_state.pwrStateResidencyTicks::UNDEFINED       100080                       # Cumulative time (in ticks) in various power states
system.cpu27.power_state.pwrStateResidencyTicks::UNDEFINED       100080                       # Cumulative time (in ticks) in various power states
system.cpu26.power_state.pwrStateResidencyTicks::UNDEFINED       100080                       # Cumulative time (in ticks) in various power states
system.cpu21.power_state.pwrStateResidencyTicks::UNDEFINED       100080                       # Cumulative time (in ticks) in various power states
system.cpu20.power_state.pwrStateResidencyTicks::UNDEFINED       100080                       # Cumulative time (in ticks) in various power states
system.cpu23.power_state.pwrStateResidencyTicks::UNDEFINED       100080                       # Cumulative time (in ticks) in various power states
system.cpu22.power_state.pwrStateResidencyTicks::UNDEFINED       100080                       # Cumulative time (in ticks) in various power states

---------- End Simulation Statistics   ----------
